
     RDKit          2D

 10 10  0  0  0  0  0  0  0  0999 V2000
    5.8125   -4.3042    0.0000 C   0  0  0  0  0  0  0  0  0  0  0  0
    5.0917   -4.7167    0.0000 O   0  0  0  0  0  0  0  0  0  0  0  0
    4.3792   -4.3042    0.0000 C   0  0  0  0  0  0  0  0  0  0  0  0
    5.0917   -3.0667    0.0000 C   0  0  0  0  0  0  0  0  0  0  0  0
    5.8125   -3.4792    0.0000 C   0  0  0  0  0  0  0  0  0  0  0  0
    4.3792   -3.4792    0.0000 C   0  0  0  0  0  0  0  0  0  0  0  0
    6.5292   -4.7292    0.0000 O   0  0  0  0  0  0  0  0  0  0  0  0
    5.0917   -2.2417    0.0000 C   0  0  0  0  0  0  0  0  0  0  0  0
    3.6625   -4.7292    0.0000 C   0  0  0  0  0  0  0  0  0  0  0  0
    5.8042   -1.8292    0.0000 C   0  0  0  0  0  0  0  0  0  0  0  0
  2  1  1  0
  3  2  1  0
  4  5  2  0
  5  1  1  0
  6  4  1  0
  7  1  2  0
  8  4  1  0
  9  3  1  0
 10  8  1  0
  3  6  2  0
M  END

> <chembl_id>
CHEMBL116147

> <chembl_pref_name>
None

$$$$

     RDKit          2D

 11 12  0  0  0  0  0  0  0  0999 V2000
   -0.1958    0.3458    0.0000 C   0  0  0  0  0  0  0  0  0  0  0  0
    0.5167    0.7583    0.0000 C   0  0  0  0  0  0  0  0  0  0  0  0
   -0.1958   -0.4875    0.0000 C   0  0  0  0  0  0  0  0  0  0  0  0
    1.2292    0.3458    0.0000 C   0  0  0  0  0  0  0  0  0  0  0  0
    1.9542    0.7500    0.0000 O   0  0  0  0  0  0  0  0  0  0  0  0
    0.5167   -0.9000    0.0000 C   0  0  0  0  0  0  0  0  0  0  0  0
    1.2292   -0.4875    0.0000 C   0  0  0  0  0  0  0  0  0  0  0  0
   -0.9208    0.7500    0.0000 C   0  0  0  0  0  0  0  0  0  0  0  0
   -0.9208   -0.9000    0.0000 C   0  0  0  0  0  0  0  0  0  0  0  0
   -1.6333    0.3458    0.0000 C   0  0  0  0  0  0  0  0  0  0  0  0
   -1.6333   -0.4875    0.0000 C   0  0  0  0  0  0  0  0  0  0  0  0
  2  1  1  0
  3  1  1  0
  4  2  1  0
  5  4  2  0
  6  3  1  0
  7  6  1  0
  8  1  2  0
  9  3  2  0
 10  8  1  0
 11 10  2  0
 11  9  1  0
  7  4  1  0
M  END

> <chembl_id>
CHEMBL191664

> <chembl_pref_name>
None

$$$$

     RDKit          2D

  9  9  0  0  0  0  0  0  0  0999 V2000
    4.7917   -2.5500    0.0000 C   0  0  0  0  0  0  0  0  0  0  0  0
    5.0125   -1.6000    0.0000 S   0  0  0  0  0  0  0  0  0  0  0  0
    4.5667   -2.0000    0.0000 N   0  0  0  0  0  0  0  0  0  0  0  0
    5.5042   -1.9000    0.0000 N   0  0  0  0  0  0  0  0  0  0  0  0
    5.3750   -2.4875    0.0000 C   0  0  0  0  0  0  0  0  0  0  0  0
    4.4875   -3.0625    0.0000 C   0  0  0  0  0  0  0  0  0  0  0  0
    4.7667   -3.5792    0.0000 N   0  0  0  0  0  0  0  0  0  0  0  0
    5.3292   -3.5792    0.0000 O   0  0  0  0  0  0  0  0  0  0  0  0
    5.8125   -2.8625    0.0000 C   0  0  0  0  0  0  0  0  0  0  0  0
  2  3  1  0
  3  1  2  0
  4  5  2  0
  5  1  1  0
  6  1  1  0
  7  6  2  0
  8  7  1  0
  9  5  1  0
  4  2  1  0
M  END

> <chembl_id>
CHEMBL20122

> <chembl_pref_name>
None

$$$$

     RDKit          2D

 10 10  0  0  0  0  0  0  0  0999 V2000
    0.8042   -3.4500    0.0000 N   0  0  0  0  0  0  0  0  0  0  0  0
    1.5167   -3.0417    0.0000 C   0  0  0  0  0  0  0  0  0  0  0  0
    0.0917   -2.2167    0.0000 N   0  0  0  0  0  0  0  0  0  0  0  0
    1.5167   -2.2167    0.0000 C   0  0  0  0  0  0  0  0  0  0  0  0
    0.8042   -1.8000    0.0000 C   0  0  0  0  0  0  0  0  0  0  0  0
    0.0917   -3.0417    0.0000 C   0  0  0  0  0  0  0  0  0  0  0  0
    0.8042   -0.9750    0.0000 O   0  0  0  0  0  0  0  0  0  0  0  0
   -0.6208   -3.4542    0.0000 O   0  0  0  0  0  0  0  0  0  0  0  0
    2.2292   -3.4542    0.0000 N   0  0  0  0  0  0  0  0  0  0  0  0
    2.2292   -1.8042    0.0000 C   0  0  0  0  0  0  0  0  0  0  0  0
  2  1  2  0
  3  6  2  0
  4  2  1  0
  5  3  1  0
  6  1  1  0
  7  5  1  0
  8  6  1  0
  9  2  1  0
 10  4  1  0
  4  5  2  0
M  END

> <chembl_id>
CHEMBL90553

> <chembl_pref_name>
None

$$$$

     RDKit          2D

  8  8  0  0  0  0  0  0  0  0999 V2000
    4.8750   -2.8667    0.0000 N   0  0  0  0  0  0  0  0  0  0  0  0
    5.3875   -2.5667    0.0000 C   0  0  0  0  0  0  0  0  0  0  0  0
    5.9042   -3.4667    0.0000 N   0  0  0  0  0  0  0  0  0  0  0  0
    4.8750   -3.4667    0.0000 C   0  0  0  0  0  0  0  0  0  0  0  0
    5.9042   -2.8667    0.0000 N   0  0  0  0  0  0  0  0  0  0  0  0
    5.3875   -3.7667    0.0000 C   0  0  0  0  0  0  0  0  0  0  0  0
    5.3792   -1.9667    0.0000 N   0  0  0  0  0  0  0  0  0  0  0  0
    4.3500   -3.7667    0.0000 O   0  0  0  0  0  0  0  0  0  0  0  0
  2  1  2  0
  3  6  1  0
  4  1  1  0
  5  2  1  0
  6  4  2  0
  7  2  1  0
  8  4  1  0
  5  3  2  0
M  END

> <chembl_id>
CHEMBL21695

> <chembl_pref_name>
None

$$$$

     RDKit          2D

 10 11  0  0  0  0  0  0  0  0999 V2000
    1.4669    2.0923    0.0000 C   0  0  0  0  0  0  0  0  0  0  0  0
    1.4657    1.2664    0.0000 C   0  0  0  0  0  0  0  0  0  0  0  0
    2.1794    0.8542    0.0000 C   0  0  0  0  0  0  0  0  0  0  0  0
    2.1776    2.5044    0.0000 C   0  0  0  0  0  0  0  0  0  0  0  0
    2.8917    2.0959    0.0000 C   0  0  0  0  0  0  0  0  0  0  0  0
    2.8920    1.2709    0.0000 C   0  0  0  0  0  0  0  0  0  0  0  0
    3.6768    1.0162    0.0000 O   0  0  0  0  0  0  0  0  0  0  0  0
    4.1615    1.6838    0.0000 C   0  0  0  0  0  0  0  0  0  0  0  0
    3.6764    2.3511    0.0000 C   0  0  0  0  0  0  0  0  0  0  0  0
    4.9851    1.6841    0.0000 O   0  0  0  0  0  0  0  0  0  0  0  0
  5  6  1  0
  2  3  1  0
  3  6  2  0
  1  2  2  0
  5  4  2  0
  6  7  1  0
  7  8  1  0
  8  9  1  0
  9  5  1  0
  4  1  1  0
  8 10  2  0
M  END

> <chembl_id>
CHEMBL284584

> <chembl_pref_name>
None

$$$$

     RDKit          2D

 10 10  0  0  0  0  0  0  0  0999 V2000
    0.3750    0.7458    0.0000 C   0  0  0  0  0  0  0  0  0  0  0  0
    1.1000    0.3333    0.0000 N   0  0  0  0  0  0  0  0  0  0  0  0
    1.8125   -1.7292    0.0000 N   0  0  0  0  0  0  0  0  0  0  0  0
    0.3750    1.5833    0.0000 O   0  0  0  0  0  0  0  0  0  0  0  0
    1.1000   -0.4917    0.0000 C   0  0  0  0  0  0  0  0  0  0  0  0
    1.8125   -0.9042    0.0000 C   0  0  0  0  0  0  0  0  0  0  0  0
   -0.3375    0.3333    0.0000 C   0  0  0  0  0  0  0  0  0  0  0  0
    1.0917   -2.1542    0.0000 C   0  0  0  0  0  0  0  0  0  0  0  0
    0.3750   -0.9042    0.0000 C   0  0  0  0  0  0  0  0  0  0  0  0
    0.3750   -1.7292    0.0000 C   0  0  0  0  0  0  0  0  0  0  0  0
  2  1  1  0
  3  6  2  0
  4  1  2  0
  5  2  1  0
  6  5  1  0
  7  1  1  0
  8 10  2  0
  9  5  2  0
 10  9  1  0
  3  8  1  0
M  END

> <chembl_id>
CHEMBL12056

> <chembl_pref_name>
None

$$$$

     RDKit          2D

 11 11  0  0  0  0  0  0  0  0999 V2000
   -4.6583  -22.7291    0.0000 N   0  0  0  0  0  0  0  0  0  0  0  0
   -3.9893  -22.2472    0.0000 C   0  0  0  0  0  0  0  0  0  0  0  0
   -4.2458  -21.4584    0.0000 C   0  0  0  0  0  0  0  0  0  0  0  0
   -5.0708  -21.4584    0.0000 C   0  0  0  0  0  0  0  0  0  0  0  0
   -5.3276  -22.2467    0.0000 C   0  0  0  0  0  0  0  0  0  0  0  0
   -3.2747  -22.6596    0.0000 C   0  0  0  0  0  0  0  0  0  0  0  0
   -2.5604  -22.2472    0.0000 N   0  0  0  0  0  0  0  0  0  0  0  0
   -3.2746  -23.4846    0.0000 O   0  0  0  0  0  0  0  0  0  0  0  0
   -1.8770  -22.7094    0.0000 C   0  0  0  0  0  0  0  0  0  0  0  0
   -1.1351  -22.3486    0.0000 C   0  0  0  0  0  0  0  0  0  0  0  0
   -0.3966  -21.9826    0.0000 C   0  0  0  0  0  0  0  0  0  0  0  0
  2  6  1  0
  4  5  2  0
  6  7  1  0
  2  3  2  0
  6  8  2  0
  1  2  1  0
  7  9  1  0
  3  4  1  0
  9 10  1  0
  5  1  1  0
 10 11  3  0
M  END

> <chembl_id>
CHEMBL266769

> <chembl_pref_name>
None

$$$$

     RDKit          2D

 10 10  0  0  0  0  0  0  0  0999 V2000
    3.1295   -2.0603    0.0000 O   0  0  0  0  0  0  0  0  0  0  0  0
    3.6913    0.6304    0.0000 N   0  0  0  0  0  0  0  0  0  0  0  0
    4.3588    0.1455    0.0000 N   0  0  0  0  0  0  0  0  0  0  0  0
    2.7939   -1.3066    0.0000 N   0  0  0  0  0  0  0  0  0  0  0  0
    2.2393    0.4004    0.0000 N   0  0  0  0  0  0  0  0  0  0  0  0
    3.0239    0.1455    0.0000 C   0  0  0  0  0  0  0  0  0  0  0  0
    3.2788   -0.6391    0.0000 C   0  0  0  0  0  0  0  0  0  0  0  0
    4.1038   -0.6391    0.0000 C   0  0  0  0  0  0  0  0  0  0  0  0
    3.6913    1.4554    0.0000 C   0  0  0  0  0  0  0  0  0  0  0  0
    2.9769    1.8679    0.0000 C   0  0  0  0  0  0  0  0  0  0  0  0
  1  4  2  0
  2  3  1  0
  2  6  1  0
  2  9  1  0
  3  8  2  0
  4  7  1  0
  5  6  1  0
  6  7  2  0
  7  8  1  0
  9 10  1  0
M  END

> <chembl_id>
CHEMBL1987109

> <chembl_pref_name>
None

$$$$

     RDKit          2D

  9  9  0  0  0  0  0  0  0  0999 V2000
    6.0200  -18.2966    0.0000 C   0  0  0  0  0  0  0  0  0  0  0  0
    5.6014  -19.0075    0.0000 C   0  0  0  0  0  0  0  0  0  0  0  0
    4.7771  -18.9968    0.0000 C   0  0  0  0  0  0  0  0  0  0  0  0
    4.3586  -19.7070    0.0000 C   0  0  0  0  0  0  0  0  0  0  0  0
    4.7651  -20.4261    0.0000 C   0  0  0  0  0  0  0  0  0  0  0  0
    5.5945  -20.4304    0.0000 N   0  0  0  0  0  0  0  0  0  0  0  0
    6.0092  -19.7196    0.0000 C   0  0  0  0  0  0  0  0  0  0  0  0
    5.6135  -17.5785    0.0000 C   0  0  0  0  0  0  0  0  0  0  0  0
    4.7885  -17.5716    0.0000 N   0  0  0  0  0  0  0  0  0  0  0  0
  4  5  2  0
  2  3  2  0
  5  6  1  0
  1  2  1  0
  6  7  2  0
  7  2  1  0
  3  4  1  0
  1  8  1  0
  8  9  1  0
M  END

> <chembl_id>
CHEMBL1256004

> <chembl_pref_name>
None

$$$$

     RDKit          2D

 10 11  0  0  0  0  0  0  0  0999 V2000
   -2.0375   -0.0417    0.0000 C   0  0  0  0  0  0  0  0  0  0  0  0
   -1.5583   -0.3917    0.0000 C   0  0  0  0  0  0  0  0  0  0  0  0
   -1.7375   -0.9667    0.0000 O   0  0  0  0  0  0  0  0  0  0  0  0
   -1.9833    0.5583    0.0000 C   0  0  0  0  0  0  0  0  0  0  0  0
   -1.0083   -0.1500    0.0000 C   0  0  0  0  0  0  0  0  0  0  0  0
   -1.4333    0.8000    0.0000 C   0  0  0  0  0  0  0  0  0  0  0  0
   -0.9458    0.4458    0.0000 C   0  0  0  0  0  0  0  0  0  0  0  0
   -2.3375   -0.9667    0.0000 C   0  0  0  0  0  0  0  0  0  0  0  0
   -1.3750    1.4000    0.0000 O   0  0  0  0  0  0  0  0  0  0  0  0
   -2.5250   -0.3917    0.0000 C   0  0  0  0  0  0  0  0  0  0  0  0
  2  1  2  0
  3  2  1  0
  4  1  1  0
  5  2  1  0
  6  4  2  0
  7  6  1  0
  8 10  1  0
  9  6  1  0
 10  1  1  0
  3  8  1  0
  7  5  2  0
M  END

> <chembl_id>
CHEMBL7696

> <chembl_pref_name>
None

$$$$

     RDKit          2D

  9  9  0  0  0  0  0  0  0  0999 V2000
    1.4416   -1.0083    0.0000 N   0  0  0  0  0  0  0  0  0  0  0  0
    0.7271   -0.5958    0.0000 C   0  0  0  0  0  0  0  0  0  0  0  0
    0.0127   -1.0083    0.0000 C   0  0  0  0  0  0  0  0  0  0  0  0
   -0.7018   -0.5958    0.0000 C   0  0  0  0  0  0  0  0  0  0  0  0
   -0.7018    0.2292    0.0000 C   0  0  0  0  0  0  0  0  0  0  0  0
    0.0127    0.6417    0.0000 C   0  0  0  0  0  0  0  0  0  0  0  0
    0.7271    0.2292    0.0000 C   0  0  0  0  0  0  0  0  0  0  0  0
   -1.4163    0.6417    0.0000 C   0  0  0  0  0  0  0  0  0  0  0  0
    0.0127    1.4667    0.0000 C   0  0  0  0  0  0  0  0  0  0  0  0
  2  1  1  0
  2  3  2  0
  2  7  1  0
  3  4  1  0
  4  5  2  0
  5  6  1  0
  5  8  1  0
  6  7  2  0
  6  9  1  0
M  END

> <chembl_id>
CHEMBL1230039

> <chembl_pref_name>
None

$$$$

     RDKit          2D

 10 10  0  0  0  0  0  0  0  0999 V2000
   12.8632  -12.3010    0.0000 C   0  0  0  0  0  0  0  0  0  0  0  0
   12.8619  -13.1286    0.0000 C   0  0  0  0  0  0  0  0  0  0  0  0
   13.5748  -13.5414    0.0000 C   0  0  0  0  0  0  0  0  0  0  0  0
   14.2941  -13.1281    0.0000 C   0  0  0  0  0  0  0  0  0  0  0  0
   14.2910  -12.2970    0.0000 C   0  0  0  0  0  0  0  0  0  0  0  0
   13.5729  -11.8882    0.0000 C   0  0  0  0  0  0  0  0  0  0  0  0
   15.0033  -11.8809    0.0000 C   0  0  0  0  0  0  0  0  0  0  0  0
   15.7199  -12.2899    0.0000 C   0  0  0  0  0  0  0  0  0  0  0  0
   16.4323  -11.8739    0.0000 N   0  0  0  0  0  0  0  0  0  0  0  0
   15.0090  -13.5399    0.0000 C   0  0  0  0  0  0  0  0  0  0  0  0
  2  3  1  0
  5  6  2  0
  6  1  1  0
  1  2  2  0
  5  7  1  0
  3  4  2  0
  7  8  1  0
  8  9  1  0
  4  5  1  0
  4 10  1  0
M  END

> <chembl_id>
CHEMBL451372

> <chembl_pref_name>
None

$$$$

     RDKit          2D

  8  8  0  0  0  0  0  0  0  0999 V2000
   -0.5359    1.9855    0.0000 O   0  0  0  0  0  0  0  0  0  0  0  0
    0.8461   -0.5619    0.0000 N   0  0  0  0  0  0  0  0  0  0  0  0
   -0.4888   -0.5619    0.0000 N   0  0  0  0  0  0  0  0  0  0  0  0
    0.1786    0.7480    0.0000 N   0  0  0  0  0  0  0  0  0  0  0  0
    0.5911   -1.3466    0.0000 N   0  0  0  0  0  0  0  0  0  0  0  0
    0.1786   -0.0770    0.0000 C   0  0  0  0  0  0  0  0  0  0  0  0
   -0.2339   -1.3466    0.0000 C   0  0  0  0  0  0  0  0  0  0  0  0
   -0.5359    1.1605    0.0000 C   0  0  0  0  0  0  0  0  0  0  0  0
  1  8  2  0
  2  5  1  0
  2  6  1  0
  3  6  2  0
  3  7  1  0
  4  6  1  0
  4  8  1  0
  5  7  2  0
M  END

> <chembl_id>
CHEMBL1742291

> <chembl_pref_name>
None

$$$$

     RDKit          2D

 10 11  0  0  0  0  0  0  0  0999 V2000
    0.5652    0.6542    0.0000 C   0  0  0  0  0  0  0  0  0  0  0  0
    0.5641   -0.1732    0.0000 C   0  0  0  0  0  0  0  0  0  0  0  0
    1.2789   -0.5860    0.0000 C   0  0  0  0  0  0  0  0  0  0  0  0
    1.9953   -0.1727    0.0000 C   0  0  0  0  0  0  0  0  0  0  0  0
    1.9925    0.6578    0.0000 C   0  0  0  0  0  0  0  0  0  0  0  0
    1.2771    1.0670    0.0000 C   0  0  0  0  0  0  0  0  0  0  0  0
    2.7041    1.0706    0.0000 C   0  0  0  0  0  0  0  0  0  0  0  0
    3.5290    1.0737    0.0000 C   0  0  0  0  0  0  0  0  0  0  0  0
    3.1139    1.7866    0.0000 C   0  0  0  0  0  0  0  0  0  0  0  0
    3.1108    2.6116    0.0000 N   0  0  0  0  0  0  0  0  0  0  0  0
  2  3  1  0
  5  6  2  0
  6  1  1  0
  8  7  1  0
  9  8  1  0
  7  9  1  0
  1  2  2  0
  3  4  2  0
  7  5  1  6
  4  5  1  0
  9 10  1  6
M  END

> <chembl_id>
CHEMBL467794

> <chembl_pref_name>
None

$$$$

     RDKit          2D

  9  9  0  0  0  0  0  0  0  0999 V2000
    2.8542   -1.6000    0.0000 C   0  0  0  0  0  0  0  0  0  0  0  0
    3.5750   -2.0125    0.0000 C   0  0  0  0  0  0  0  0  0  0  0  0
    1.9667   -0.6042    0.0000 N   0  0  0  0  0  0  0  0  0  0  0  0
    2.1042   -1.9375    0.0000 N   0  0  0  0  0  0  0  0  0  0  0  0
    2.7667   -0.7792    0.0000 C   0  0  0  0  0  0  0  0  0  0  0  0
    1.5542   -1.3250    0.0000 C   0  0  0  0  0  0  0  0  0  0  0  0
    3.5750   -2.8375    0.0000 O   0  0  0  0  0  0  0  0  0  0  0  0
    4.2875   -1.6000    0.0000 N   0  0  0  0  0  0  0  0  0  0  0  0
    5.0000   -2.0125    0.0000 N   0  0  0  0  0  0  0  0  0  0  0  0
  2  1  1  0
  3  5  1  0
  4  1  1  0
  5  1  2  0
  6  4  2  0
  7  2  2  0
  8  2  1  0
  9  8  1  0
  3  6  1  0
M  END

> <chembl_id>
CHEMBL122319

> <chembl_pref_name>
None

$$$$

     RDKit          2D

  9 10  0  0  0  0  0  0  0  0999 V2000
   -0.9511   -0.6674    0.0000 C   0  0  0  0  0  0  0  0  0  0  0  0
   -1.4360   -0.0000    0.0000 C   0  0  0  0  0  0  0  0  0  0  0  0
   -0.9511    0.6674    0.0000 C   0  0  0  0  0  0  0  0  0  0  0  0
    0.5480    0.8250    0.0000 C   0  0  0  0  0  0  0  0  0  0  0  0
    1.2625    0.4125    0.0000 C   0  0  0  0  0  0  0  0  0  0  0  0
    1.2625   -0.4125    0.0000 C   0  0  0  0  0  0  0  0  0  0  0  0
    0.5480   -0.8250    0.0000 C   0  0  0  0  0  0  0  0  0  0  0  0
   -0.1664   -0.4125    0.0000 C   0  0  0  0  0  0  0  0  0  0  0  0
   -0.1664    0.4125    0.0000 C   0  0  0  0  0  0  0  0  0  0  0  0
  1  2  1  0
  1  8  1  0
  2  3  2  0
  3  9  1  0
  4  5  2  0
  4  9  1  0
  5  6  1  0
  6  7  2  0
  7  8  1  0
  8  9  2  0
M  END

> <chembl_id>
CHEMBL192812

> <chembl_pref_name>
INDENE

$$$$

     RDKit          2D

 10 10  0  0  1  0  0  0  0  0999 V2000
    4.8792   -5.2792    0.0000 C   0  0  0  0  0  0  0  0  0  0  0  0
    5.5000   -6.3375    0.0000 N   0  0  0  0  0  0  0  0  0  0  0  0
    4.2667   -5.6375    0.0000 C   0  0  0  0  0  0  0  0  0  0  0  0
    5.4875   -5.6250    0.0000 C   0  0  0  0  0  0  0  0  0  0  0  0
    3.6542   -5.2792    0.0000 C   0  0  0  0  0  0  0  0  0  0  0  0
    4.2667   -6.3417    0.0000 C   0  0  0  0  0  0  0  0  0  0  0  0
    6.1042   -5.2667    0.0000 C   0  0  0  0  0  0  0  0  0  0  0  0
    3.0375   -5.6375    0.0000 C   0  0  0  0  0  0  0  0  0  0  0  0
    3.6542   -6.7000    0.0000 C   0  0  0  0  0  0  0  0  0  0  0  0
    3.0375   -6.3417    0.0000 C   0  0  0  0  0  0  0  0  0  0  0  0
  2  4  1  0
  3  1  1  0
  4  1  1  0
  5  3  2  0
  6  3  1  0
  4  7  1  1
  8  5  1  0
  9  6  2  0
 10  9  1  0
  8 10  2  0
M  END

> <chembl_id>
CHEMBL19393

> <chembl_pref_name>
LEVAMFETAMINE

$$$$

     RDKit          2D

 10 10  0  0  0  0  0  0  0  0999 V2000
   -1.6833   -2.9167    0.0000 C   0  0  0  0  0  0  0  0  0  0  0  0
   -2.5083   -2.8917    0.0000 N   0  0  0  0  0  0  0  0  0  0  0  0
   -1.2875   -3.6417    0.0000 C   0  0  0  0  0  0  0  0  0  0  0  0
   -1.2458   -2.2125    0.0000 C   0  0  0  0  0  0  0  0  0  0  0  0
   -0.0250   -2.9542    0.0000 C   0  0  0  0  0  0  0  0  0  0  0  0
    0.7917   -2.9792    0.0000 N   0  0  0  0  0  0  0  0  0  0  0  0
   -0.4583   -3.6625    0.0000 C   0  0  0  0  0  0  0  0  0  0  0  0
   -0.4208   -2.2375    0.0000 C   0  0  0  0  0  0  0  0  0  0  0  0
   -2.8958   -2.1667    0.0000 C   0  0  0  0  0  0  0  0  0  0  0  0
   -2.9375   -3.5917    0.0000 C   0  0  0  0  0  0  0  0  0  0  0  0
  2  1  1  0
  3  1  2  0
  4  1  1  0
  5  8  1  0
  6  5  1  0
  7  3  1  0
  8  4  2  0
  9  2  1  0
 10  2  1  0
  5  7  2  0
M  END

> <chembl_id>
CHEMBL36296

> <chembl_pref_name>
None

$$$$

     RDKit          2D

  9  9  0  0  0  0  0  0  0  0999 V2000
   -2.0083    0.1625    0.0000 C   0  0  0  0  0  0  0  0  0  0  0  0
   -1.2958    0.5750    0.0000 C   0  0  0  0  0  0  0  0  0  0  0  0
   -2.0083   -0.6667    0.0000 C   0  0  0  0  0  0  0  0  0  0  0  0
   -0.5750    0.1625    0.0000 C   0  0  0  0  0  0  0  0  0  0  0  0
   -1.2958   -1.0792    0.0000 C   0  0  0  0  0  0  0  0  0  0  0  0
   -0.5750   -0.6667    0.0000 C   0  0  0  0  0  0  0  0  0  0  0  0
   -1.2958   -1.9042    0.0000 Cl  0  0  0  0  0  0  0  0  0  0  0  0
   -1.2958    1.4000    0.0000 O   0  0  0  0  0  0  0  0  0  0  0  0
   -2.7208    0.5708    0.0000 C   0  0  0  0  0  0  0  0  0  0  0  0
  2  1  1  0
  3  1  2  0
  4  2  2  0
  5  3  1  0
  6  5  2  0
  7  5  1  0
  8  2  1  0
  9  1  1  0
  4  6  1  0
M  END

> <chembl_id>
CHEMBL194121

> <chembl_pref_name>
None

$$$$

     RDKit          2D

  8  8  0  0  0  0  0  0  0  0999 V2000
    4.9292   -4.3792    0.0000 N   0  0  0  0  0  0  0  0  0  0  0  0
    5.6417   -4.7917    0.0000 C   0  0  0  0  0  0  0  0  0  0  0  0
    4.9292   -6.0292    0.0000 N   0  0  0  0  0  0  0  0  0  0  0  0
    6.3542   -4.3792    0.0000 O   0  0  0  0  0  0  0  0  0  0  0  0
    5.6417   -5.6167    0.0000 C   0  0  0  0  0  0  0  0  0  0  0  0
    4.2167   -4.7917    0.0000 C   0  0  0  0  0  0  0  0  0  0  0  0
    4.2167   -5.6167    0.0000 C   0  0  0  0  0  0  0  0  0  0  0  0
    7.0667   -4.7917    0.0000 C   0  0  0  0  0  0  0  0  0  0  0  0
  2  1  2  0
  3  7  1  0
  4  2  1  0
  5  2  1  0
  6  1  1  0
  7  6  2  0
  8  4  1  0
  5  3  2  0
M  END

> <chembl_id>
CHEMBL97794

> <chembl_pref_name>
None

$$$$

     RDKit          2D

 10 10  0  0  0  0  0  0  0  0999 V2000
    1.8415   -4.3711    0.0000 O   0  0  0  0  0  0  0  0  0  0  0  0
    1.8415   -1.8961    0.0000 N   0  0  0  0  0  0  0  0  0  0  0  0
    2.5559   -3.1336    0.0000 N   0  0  0  0  0  0  0  0  0  0  0  0
    3.2704   -1.8961    0.0000 N   0  0  0  0  0  0  0  0  0  0  0  0
    0.4125   -1.8961    0.0000 N   0  0  0  0  0  0  0  0  0  0  0  0
    2.5559   -2.3086    0.0000 C   0  0  0  0  0  0  0  0  0  0  0  0
    1.1270   -2.3086    0.0000 C   0  0  0  0  0  0  0  0  0  0  0  0
    1.8415   -3.5461    0.0000 C   0  0  0  0  0  0  0  0  0  0  0  0
    1.1270   -3.1336    0.0000 C   0  0  0  0  0  0  0  0  0  0  0  0
    1.8415   -1.0711    0.0000 C   0  0  0  0  0  0  0  0  0  0  0  0
  1  8  2  0
  2  6  1  0
  2  7  1  0
  2 10  1  0
  3  6  2  0
  3  8  1  0
  4  6  1  0
  5  7  1  0
  7  9  2  0
  8  9  1  0
M  END

> <chembl_id>
CHEMBL2006524

> <chembl_pref_name>
None

$$$$

     RDKit          2D

 10 10  0  0  0  0  0  0  0  0999 V2000
    3.1542   -4.3167    0.0000 N   0  0  0  0  0  0  0  0  0  0  0  0
    0.5625   -5.2292    0.0000 C   0  0  0  0  0  0  0  0  0  0  0  0
    1.6000   -4.6292    0.0000 C   0  0  0  0  0  0  0  0  0  0  0  0
    0.5625   -4.6292    0.0000 C   0  0  0  0  0  0  0  0  0  0  0  0
    1.0792   -5.5292    0.0000 C   0  0  0  0  0  0  0  0  0  0  0  0
    1.0792   -4.3292    0.0000 C   0  0  0  0  0  0  0  0  0  0  0  0
    1.6000   -5.2292    0.0000 C   0  0  0  0  0  0  0  0  0  0  0  0
    0.0417   -5.5292    0.0000 O   0  0  0  0  0  0  0  0  0  0  0  0
    2.6375   -4.6167    0.0000 C   0  0  0  0  0  0  0  0  0  0  0  0
    2.1167   -4.3167    0.0000 C   0  0  0  0  0  0  0  0  0  0  0  0
  2  5  1  0
  3 10  1  0
  4  6  1  0
  5  7  2  0
  6  3  2  0
  7  3  1  0
  8  2  1  0
  9  1  1  0
 10  9  1  0
  4  2  2  0
M  END

> <chembl_id>
CHEMBL11608

> <chembl_pref_name>
TYRAMINE

$$$$

     RDKit          2D

 10 10  0  0  0  0  0  0  0  0999 V2000
    1.1947   -4.5373    0.0000 C   0  0  0  0  0  0  0  0  0  0  0  0
    1.1933   -5.3648    0.0000 C   0  0  0  0  0  0  0  0  0  0  0  0
    1.9063   -5.7777    0.0000 C   0  0  0  0  0  0  0  0  0  0  0  0
    2.6256   -5.3644    0.0000 C   0  0  0  0  0  0  0  0  0  0  0  0
    2.6224   -4.5332    0.0000 C   0  0  0  0  0  0  0  0  0  0  0  0
    1.9044   -4.1245    0.0000 C   0  0  0  0  0  0  0  0  0  0  0  0
    1.9004   -3.2995    0.0000 O   0  0  0  0  0  0  0  0  0  0  0  0
    3.3405   -5.7762    0.0000 C   0  0  0  0  0  0  0  0  0  0  0  0
    3.3411   -6.6012    0.0000 C   0  0  0  0  0  0  0  0  0  0  0  0
    4.0544   -5.3631    0.0000 C   0  0  0  0  0  0  0  0  0  0  0  0
  2  3  1  0
  5  6  2  0
  6  1  1  0
  1  2  2  0
  6  7  1  0
  3  4  2  0
  4  8  1  0
  8  9  1  0
  4  5  1  0
  8 10  1  0
M  END

> <chembl_id>
CHEMBL449684

> <chembl_pref_name>
None

$$$$

     RDKit          2D

  9  9  0  0  0  0  0  0  0  0999 V2000
    1.4936   -7.1339    0.0000 C   0  0  0  0  0  0  0  0  0  0  0  0
    2.2041   -7.5447    0.0000 C   0  0  0  0  0  0  0  0  0  0  0  0
    2.2032   -8.3746    0.0000 C   0  0  0  0  0  0  0  0  0  0  0  0
    1.4918   -8.7846    0.0000 C   0  0  0  0  0  0  0  0  0  0  0  0
    0.7767   -8.3738    0.0000 C   0  0  0  0  0  0  0  0  0  0  0  0
    0.7776   -7.5438    0.0000 C   0  0  0  0  0  0  0  0  0  0  0  0
    1.4944   -6.3086    0.0000 O   0  0  0  0  0  0  0  0  0  0  0  0
    2.9183   -8.7855    0.0000 C   0  0  0  0  0  0  0  0  0  0  0  0
    2.9176   -9.6107    0.0000 C   0  0  0  0  0  0  0  0  0  0  0  0
  1  2  1  0
  2  3  2  0
  3  4  1  0
  4  5  2  0
  5  6  1  0
  1  6  2  0
  1  7  1  0
  8  9  1  0
  3  8  1  0
M  END

> <chembl_id>
CHEMBL58052

> <chembl_pref_name>
None

$$$$

     RDKit          2D

 10 10  0  0  0  0  0  0  0  0999 V2000
    6.0060   -2.7350    0.0000 C   0  0  0  0  0  0  0  0  0  0  0  0
    6.7195   -2.3195    0.0000 N   0  0  0  0  0  0  0  0  0  0  0  0
    7.4316   -1.9017    0.0000 N   0  0  0  0  0  0  0  0  0  0  0  0
    8.1448   -1.4847    0.0000 N   0  0  0  0  0  0  0  0  0  0  0  0
    5.2930   -2.3232    0.0000 C   0  0  0  0  0  0  0  0  0  0  0  0
    4.5799   -2.7380    0.0000 C   0  0  0  0  0  0  0  0  0  0  0  0
    4.5826   -3.5646    0.0000 C   0  0  0  0  0  0  0  0  0  0  0  0
    5.3043   -3.9746    0.0000 C   0  0  0  0  0  0  0  0  0  0  0  0
    6.0145   -3.5574    0.0000 C   0  0  0  0  0  0  0  0  0  0  0  0
    3.8628   -3.9852    0.0000 F   0  0  0  0  0  0  0  0  0  0  0  0
  1  2  1  0
  2  3  2  0
  3  4  2  0
  1  5  2  0
  5  6  1  0
  6  7  2  0
  7  8  1  0
  8  9  2  0
  9  1  1  0
  7 10  1  0
M  CHG  2   3   1   4  -1
M  END

> <chembl_id>
CHEMBL3236177

> <chembl_pref_name>
None

$$$$

     RDKit          2D

 10 10  0  0  0  0  0  0  0  0999 V2000
   -0.9546   -0.7047    0.0000 C   0  0  0  0  0  0  0  0  0  0  0  0
   -0.9546   -1.5297    0.0000 O   0  0  0  0  0  0  0  0  0  0  0  0
   -1.6691   -0.2922    0.0000 O   0  0  0  0  0  0  0  0  0  0  0  0
   -0.2401   -0.2922    0.0000 C   0  0  0  0  0  0  0  0  0  0  0  0
   -0.2401    0.5328    0.0000 C   0  0  0  0  0  0  0  0  0  0  0  0
    0.4744    0.9453    0.0000 C   0  0  0  0  0  0  0  0  0  0  0  0
    1.1888    0.5328    0.0000 C   0  0  0  0  0  0  0  0  0  0  0  0
    1.1888   -0.2922    0.0000 C   0  0  0  0  0  0  0  0  0  0  0  0
    0.4744   -0.7047    0.0000 C   0  0  0  0  0  0  0  0  0  0  0  0
    0.4744    1.7703    0.0000 O   0  0  0  0  0  0  0  0  0  0  0  0
  1  2  2  0
  1  3  1  0
  4  1  1  0
  4  5  1  0
  4  9  2  0
  5  6  2  0
  6  7  1  0
  6 10  1  0
  7  8  2  0
  8  9  1  0
M  END

> <chembl_id>
CHEMBL65369

> <chembl_pref_name>
3-HYDROXYBENZOIC ACID

$$$$

     RDKit          2D

  9  8  0  0  0  0  0  0  0  0999 V2000
    0.4125   -0.7154    0.0000 N   0  0  0  0  0  0  0  0  0  0  0  0
    0.0000    0.0000    0.0000 N   0  0  0  0  0  0  0  0  0  0  0  0
    1.2375   -0.7154    0.0000 C   0  0  0  0  0  0  0  0  0  0  0  0
    1.6471    0.0000    0.0000 C   0  0  0  0  0  0  0  0  0  0  0  0
    1.6471   -1.4279    0.0000 C   0  0  0  0  0  0  0  0  0  0  0  0
    2.4721    0.0000    0.0000 C   0  0  0  0  0  0  0  0  0  0  0  0
    2.4721   -1.4279    0.0000 C   0  0  0  0  0  0  0  0  0  0  0  0
    2.8846   -0.7154    0.0000 C   0  0  0  0  0  0  0  0  0  0  0  0
    0.9231   -1.7769    0.0000 Cl  0  0  0  0  0  0  0  0  0  0  0  0
  1  2  1  0
  1  3  1  0
  3  4  2  0
  3  5  1  0
  4  6  1  0
  5  7  2  0
  6  8  2  0
  7  8  1  0
M  END

> <chembl_id>
CHEMBL3182475

> <chembl_pref_name>
None

$$$$

     RDKit          2D

 10 10  0  0  0  0  0  0  0  0999 V2000
    2.7736   -3.7228    0.0000 O   0  0  0  0  0  0  0  0  0  0  0  0
    4.2025   -1.2478    0.0000 N   0  0  0  0  0  0  0  0  0  0  0  0
    4.2025   -3.7228    0.0000 N   0  0  0  0  0  0  0  0  0  0  0  0
    3.4880   -0.0103    0.0000 N   0  0  0  0  0  0  0  0  0  0  0  0
    3.4880   -2.4853    0.0000 C   0  0  0  0  0  0  0  0  0  0  0  0
    3.4880   -3.3103    0.0000 C   0  0  0  0  0  0  0  0  0  0  0  0
    4.2025   -2.0728    0.0000 C   0  0  0  0  0  0  0  0  0  0  0  0
    2.7736   -2.0728    0.0000 C   0  0  0  0  0  0  0  0  0  0  0  0
    3.4880   -0.8353    0.0000 C   0  0  0  0  0  0  0  0  0  0  0  0
    2.7736   -1.2478    0.0000 C   0  0  0  0  0  0  0  0  0  0  0  0
  1  6  2  0
  2  7  2  0
  2  9  1  0
  3  6  1  0
  4  9  1  0
  5  6  1  0
  5  7  1  0
  5  8  2  0
  8 10  1  0
  9 10  2  0
M  END

> <chembl_id>
CHEMBL1324108

> <chembl_pref_name>
6-AMINONICOTINAMIDE

$$$$

     RDKit          2D

 10 11  0  0  0  0  0  0  0  0999 V2000
    5.1375   -3.0042    0.0000 C   0  0  0  0  0  0  0  0  0  0  0  0
    5.1375   -2.1792    0.0000 C   0  0  0  0  0  0  0  0  0  0  0  0
    4.4250   -1.7667    0.0000 O   0  0  0  0  0  0  0  0  0  0  0  0
    4.4250   -3.4167    0.0000 O   0  0  0  0  0  0  0  0  0  0  0  0
    3.7042   -3.0042    0.0000 C   0  0  0  0  0  0  0  0  0  0  0  0
    3.7042   -2.1792    0.0000 C   0  0  0  0  0  0  0  0  0  0  0  0
    5.8542   -3.4167    0.0000 C   0  0  0  0  0  0  0  0  0  0  0  0
    5.8542   -1.7667    0.0000 C   0  0  0  0  0  0  0  0  0  0  0  0
    6.5792   -2.1792    0.0000 C   0  0  0  0  0  0  0  0  0  0  0  0
    6.5792   -3.0042    0.0000 C   0  0  0  0  0  0  0  0  0  0  0  0
  2  1  1  0
  3  2  1  0
  4  1  1  0
  5  4  1  0
  6  5  1  0
  7  1  2  0
  8  2  2  0
  9 10  2  0
 10  7  1  0
  9  8  1  0
  3  6  1  0
M  END

> <chembl_id>
CHEMBL19452

> <chembl_pref_name>
None

$$$$

     RDKit          2D

  9  9  0  0  0  0  0  0  0  0999 V2000
   -0.0958   -3.4042    0.0000 C   0  0  0  0  0  0  0  0  0  0  0  0
   -0.6125   -3.1042    0.0000 C   0  0  0  0  0  0  0  0  0  0  0  0
   -0.6208   -2.5042    0.0000 Cl  0  0  0  0  0  0  0  0  0  0  0  0
    0.9417   -3.3917    0.0000 N   0  0  0  0  0  0  0  0  0  0  0  0
    0.4250   -3.1000    0.0000 C   0  0  0  0  0  0  0  0  0  0  0  0
   -0.0958   -4.0042    0.0000 C   0  0  0  0  0  0  0  0  0  0  0  0
   -1.1333   -3.4042    0.0000 C   0  0  0  0  0  0  0  0  0  0  0  0
   -0.6125   -4.3042    0.0000 C   0  0  0  0  0  0  0  0  0  0  0  0
   -1.1333   -4.0042    0.0000 C   0  0  0  0  0  0  0  0  0  0  0  0
  2  1  2  0
  3  2  1  0
  4  5  1  0
  5  1  1  0
  6  1  1  0
  7  2  1  0
  8  6  2  0
  9  8  1  0
  7  9  2  0
M  END

> <chembl_id>
CHEMBL12712

> <chembl_pref_name>
None

$$$$

     RDKit          2D

 10 10  0  0  0  0  0  0  0  0999 V2000
    0.7042   -0.1292    0.0000 C   0  0  0  0  0  0  0  0  0  0  0  0
    1.2250   -0.4292    0.0000 C   0  0  0  0  0  0  0  0  0  0  0  0
    0.1875   -0.4375    0.0000 C   0  0  0  0  0  0  0  0  0  0  0  0
    0.1875   -1.0375    0.0000 C   0  0  0  0  0  0  0  0  0  0  0  0
    1.2250   -1.0375    0.0000 C   0  0  0  0  0  0  0  0  0  0  0  0
    0.7042   -1.3375    0.0000 C   0  0  0  0  0  0  0  0  0  0  0  0
    0.7000    0.4708    0.0000 O   0  0  0  0  0  0  0  0  0  0  0  0
    1.7417   -0.1292    0.0000 C   0  0  0  0  0  0  0  0  0  0  0  0
   -0.3333   -0.1375    0.0000 C   0  0  0  0  0  0  0  0  0  0  0  0
    0.7042   -1.9375    0.0000 C   0  0  0  0  0  0  0  0  0  0  0  0
  2  1  2  0
  3  1  1  0
  4  3  2  0
  5  2  1  0
  6  4  1  0
  7  1  1  0
  8  2  1  0
  9  3  1  0
 10  6  1  0
  6  5  2  0
M  END

> <chembl_id>
CHEMBL108930

> <chembl_pref_name>
None

$$$$

     RDKit          2D

  9  9  0  0  0  0  0  0  0  0999 V2000
   29.4615   -7.9695    0.0000 N   0  0  0  0  0  0  0  0  0  0  0  0
   30.1697   -7.5582    0.0000 C   0  0  0  0  0  0  0  0  0  0  0  0
   30.8883   -7.9805    0.0000 N   0  0  0  0  0  0  0  0  0  0  0  0
   29.4606   -8.7960    0.0000 C   0  0  0  0  0  0  0  0  0  0  0  0
   28.7450   -7.5606    0.0000 C   0  0  0  0  0  0  0  0  0  0  0  0
   28.7456   -6.7341    0.0000 C   0  0  0  0  0  0  0  0  0  0  0  0
   29.4579   -6.3190    0.0000 C   0  0  0  0  0  0  0  0  0  0  0  0
   30.1688   -6.7305    0.0000 C   0  0  0  0  0  0  0  0  0  0  0  0
   28.0320   -6.3236    0.0000 F   0  0  0  0  0  0  0  0  0  0  0  0
  1  2  1  0
  2  3  2  0
  1  4  1  0
  1  5  1  0
  5  6  2  0
  6  7  1  0
  7  8  2  0
  8  2  1  0
  6  9  1  0
M  END

> <chembl_id>
CHEMBL3304064

> <chembl_pref_name>
None

$$$$

     RDKit          2D

 10 10  0  0  0  0  0  0  0  0999 V2000
   -0.2583   -1.7042    0.0000 C   0  0  0  0  0  0  0  0  0  0  0  0
   -1.0833   -1.7042    0.0000 C   0  0  0  0  0  0  0  0  0  0  0  0
   -1.3375   -0.9167    0.0000 N   0  0  0  0  0  0  0  0  0  0  0  0
    0.2292   -2.3750    0.0000 C   0  0  0  0  0  0  0  0  0  0  0  0
   -0.6708   -0.4292    0.0000 N   0  0  0  0  0  0  0  0  0  0  0  0
    0.0042   -0.9167    0.0000 C   0  0  0  0  0  0  0  0  0  0  0  0
    1.0542   -2.2875    0.0000 O   0  0  0  0  0  0  0  0  0  0  0  0
   -1.5708   -2.3750    0.0000 O   0  0  0  0  0  0  0  0  0  0  0  0
   -0.1083   -3.1292    0.0000 O   0  0  0  0  0  0  0  0  0  0  0  0
   -2.3875   -2.2875    0.0000 C   0  0  0  0  0  0  0  0  0  0  0  0
  2  1  2  0
  3  2  1  0
  4  1  1  0
  5  6  2  0
  6  1  1  0
  7  4  2  0
  8  2  1  0
  9  4  1  0
 10  8  1  0
  5  3  1  0
M  END

> <chembl_id>
CHEMBL65720

> <chembl_pref_name>
None

$$$$

     RDKit          2D

 10 11  0  0  0  0  0  0  0  0999 V2000
    0.5917   -3.8167    0.0000 N   0  0  0  0  0  0  0  0  0  0  0  0
    0.5917   -3.0042    0.0000 C   0  0  0  0  0  0  0  0  0  0  0  0
    1.3000   -2.5917    0.0000 C   0  0  0  0  0  0  0  0  0  0  0  0
    1.2917   -4.2250    0.0000 C   0  0  0  0  0  0  0  0  0  0  0  0
   -0.1208   -2.5917    0.0000 C   0  0  0  0  0  0  0  0  0  0  0  0
    1.3000   -1.7750    0.0000 C   0  0  0  0  0  0  0  0  0  0  0  0
    2.0042   -3.0000    0.0000 C   0  0  0  0  0  0  0  0  0  0  0  0
    2.0042   -3.8167    0.0000 C   0  0  0  0  0  0  0  0  0  0  0  0
    0.5792   -1.3667    0.0000 C   0  0  0  0  0  0  0  0  0  0  0  0
   -0.1208   -1.7750    0.0000 C   0  0  0  0  0  0  0  0  0  0  0  0
  2  1  1  0
  3  2  2  0
  4  1  1  0
  5  2  1  0
  6  3  1  0
  7  8  1  0
  8  4  1  0
  9 10  1  0
 10  5  2  0
  7  3  1  0
  9  6  2  0
M  END

> <chembl_id>
CHEMBL303611

> <chembl_pref_name>
None

$$$$

     RDKit          2D

 11 11  0  0  0  0  0  0  0  0999 V2000
   -0.5302    1.6839    0.0000 C   0  0  0  0  0  0  0  0  0  0  0  0
   -1.2446    2.0964    0.0000 O   0  0  0  0  0  0  0  0  0  0  0  0
    0.1843    2.0964    0.0000 O   0  0  0  0  0  0  0  0  0  0  0  0
   -0.5302    0.8589    0.0000 C   0  0  0  0  0  0  0  0  0  0  0  0
    0.1843    0.4464    0.0000 C   0  0  0  0  0  0  0  0  0  0  0  0
    0.1843   -0.3786    0.0000 C   0  0  0  0  0  0  0  0  0  0  0  0
    0.8988   -0.7911    0.0000 C   0  0  0  0  0  0  0  0  0  0  0  0
    0.8988   -1.6161    0.0000 C   0  0  0  0  0  0  0  0  0  0  0  0
   -0.5302   -1.6161    0.0000 C   0  0  0  0  0  0  0  0  0  0  0  0
   -0.5302   -0.7911    0.0000 C   0  0  0  0  0  0  0  0  0  0  0  0
    0.1843   -2.0286    0.0000 N   0  0  0  0  0  0  0  0  0  0  0  0
  1  2  2  0
  1  3  1  0
  1  4  1  0
  4  5  2  0
  6  5  1  0
  6  7  2  0
  6 10  1  0
  7  8  1  0
  8 11  2  0
  9 10  2  0
  9 11  1  0
M  END

> <chembl_id>
CHEMBL1615293

> <chembl_pref_name>
None

$$$$

     RDKit          2D

  9  9  0  0  0  0  0  0  0  0999 V2000
   10.8750  -21.7375    0.0000 N   0  0  0  0  0  0  0  0  0  0  0  0
   11.7000  -21.7375    0.0000 C   0  0  0  0  0  0  0  0  0  0  0  0
   11.9568  -20.9534    0.0000 C   0  0  0  0  0  0  0  0  0  0  0  0
   11.2875  -20.4667    0.0000 N   0  0  0  0  0  0  0  0  0  0  0  0
   10.6224  -20.9534    0.0000 C   0  0  0  0  0  0  0  0  0  0  0  0
   12.7417  -20.6996    0.0000 C   0  0  0  0  0  0  0  0  0  0  0  0
   13.3541  -21.2524    0.0000 C   0  0  0  0  0  0  0  0  0  0  0  0
   13.1844  -22.0602    0.0000 O   0  0  0  0  0  0  0  0  0  0  0  0
   14.1420  -20.9996    0.0000 O   0  0  0  0  0  0  0  0  0  0  0  0
  5  1  1  0
  1  2  1  0
  3  6  1  0
  6  7  1  0
  2  3  2  0
  7  8  1  0
  7  9  2  0
  3  4  1  0
  4  5  2  0
M  END

> <chembl_id>
CHEMBL784

> <chembl_pref_name>
IMIDAZOLE ACETIC ACID

$$$$

     RDKit          2D

  9  9  0  0  0  0  0  0  0  0999 V2000
    4.9292   -6.0292    0.0000 N   0  0  0  0  0  0  0  0  0  0  0  0
    4.9292   -4.3792    0.0000 N   0  0  0  0  0  0  0  0  0  0  0  0
    5.6417   -5.6167    0.0000 C   0  0  0  0  0  0  0  0  0  0  0  0
    5.6417   -4.7917    0.0000 C   0  0  0  0  0  0  0  0  0  0  0  0
    4.2167   -5.6167    0.0000 C   0  0  0  0  0  0  0  0  0  0  0  0
    4.2167   -4.7917    0.0000 C   0  0  0  0  0  0  0  0  0  0  0  0
    6.3542   -6.0292    0.0000 C   0  0  0  0  0  0  0  0  0  0  0  0
    6.3542   -4.3792    0.0000 C   0  0  0  0  0  0  0  0  0  0  0  0
    3.5042   -6.0292    0.0000 C   0  0  0  0  0  0  0  0  0  0  0  0
  2  6  1  0
  3  1  2  0
  4  3  1  0
  5  1  1  0
  6  5  2  0
  7  3  1  0
  8  4  1  0
  9  5  1  0
  4  2  2  0
M  END

> <chembl_id>
CHEMBL320146

> <chembl_pref_name>
None

$$$$

     RDKit          2D

  9  9  0  0  0  0  0  0  0  0999 V2000
   15.0236   -7.9000    0.0000 C   0  0  0  0  0  0  0  0  0  0  0  0
   15.0224   -8.7273    0.0000 C   0  0  0  0  0  0  0  0  0  0  0  0
   15.7372   -9.1402    0.0000 N   0  0  0  0  0  0  0  0  0  0  0  0
   16.4537   -8.7269    0.0000 C   0  0  0  0  0  0  0  0  0  0  0  0
   16.4508   -7.8963    0.0000 C   0  0  0  0  0  0  0  0  0  0  0  0
   15.7354   -7.4872    0.0000 C   0  0  0  0  0  0  0  0  0  0  0  0
   17.1688   -9.1382    0.0000 C   0  0  0  0  0  0  0  0  0  0  0  0
   17.8826   -8.7246    0.0000 C   0  0  0  0  0  0  0  0  0  0  0  0
   18.5977   -9.1360    0.0000 N   0  0  0  0  0  0  0  0  0  0  0  0
  4  5  1  0
  2  3  1  0
  5  6  2  0
  6  1  1  0
  1  2  2  0
  4  7  1  0
  3  4  2  0
  7  8  1  0
  8  9  1  0
M  END

> <chembl_id>
CHEMBL32813

> <chembl_pref_name>
None

$$$$

     RDKit          2D

  8  8  0  0  0  0  0  0  0  0999 V2000
    1.4667    0.5333    0.0000 C   0  0  0  0  0  0  0  0  0  0  0  0
    1.7375   -0.2417    0.0000 N   0  0  0  0  0  0  0  0  0  0  0  0
    1.9292    1.2125    0.0000 C   0  0  0  0  0  0  0  0  0  0  0  0
    1.0792   -0.7417    0.0000 N   0  0  0  0  0  0  0  0  0  0  0  0
    0.6417    0.5125    0.0000 C   0  0  0  0  0  0  0  0  0  0  0  0
    0.4042   -0.2792    0.0000 C   0  0  0  0  0  0  0  0  0  0  0  0
    1.5792    1.9583    0.0000 O   0  0  0  0  0  0  0  0  0  0  0  0
    2.7542    1.1458    0.0000 O   0  0  0  0  0  0  0  0  0  0  0  0
  2  1  2  0
  3  1  1  0
  4  2  1  0
  5  1  1  0
  6  5  2  0
  7  3  2  0
  8  3  1  0
  6  4  1  0
M  END

> <chembl_id>
CHEMBL128679

> <chembl_pref_name>
None

$$$$

     RDKit          2D

 11 11  0  0  1  0  0  0  0  0999 V2000
    3.8292   -5.1792    0.0000 N   0  0  0  0  0  0  0  0  0  0  0  0
    3.2167   -4.1292    0.0000 C   0  0  0  0  0  0  0  0  0  0  0  0
    2.6000   -4.4917    0.0000 C   0  0  0  0  0  0  0  0  0  0  0  0
    3.8292   -4.4792    0.0000 C   0  0  0  0  0  0  0  0  0  0  0  0
    4.4292   -5.5292    0.0000 C   0  0  0  0  0  0  0  0  0  0  0  0
    1.9792   -4.1292    0.0000 C   0  0  0  0  0  0  0  0  0  0  0  0
    2.6000   -5.2042    0.0000 C   0  0  0  0  0  0  0  0  0  0  0  0
    4.4375   -4.1167    0.0000 C   0  0  0  0  0  0  0  0  0  0  0  0
    1.3667   -4.4917    0.0000 C   0  0  0  0  0  0  0  0  0  0  0  0
    1.9792   -5.5667    0.0000 C   0  0  0  0  0  0  0  0  0  0  0  0
    1.3667   -5.2042    0.0000 C   0  0  0  0  0  0  0  0  0  0  0  0
  2  4  1  0
  3  2  1  0
  4  1  1  6
  5  1  1  0
  6  3  1  0
  7  3  2  0
  8  4  1  0
  9  6  2  0
 10  7  1  0
 11  9  1  0
 11 10  2  0
M  END

> <chembl_id>
CHEMBL1201201

> <chembl_pref_name>
METHAMPHETAMINE

$$$$

     RDKit          2D

 10 10  0  0  0  0  0  0  0  0999 V2000
    1.3109   -1.2987    0.0000 N   0  0  0  0  0  0  0  0  0  0  0  0
    0.5964   -0.8862    0.0000 C   0  0  0  0  0  0  0  0  0  0  0  0
    0.5964   -0.0612    0.0000 C   0  0  0  0  0  0  0  0  0  0  0  0
   -0.1181   -1.2987    0.0000 C   0  0  0  0  0  0  0  0  0  0  0  0
   -0.8326   -0.8862    0.0000 C   0  0  0  0  0  0  0  0  0  0  0  0
   -0.8326   -0.0612    0.0000 C   0  0  0  0  0  0  0  0  0  0  0  0
   -0.1181    0.3513    0.0000 C   0  0  0  0  0  0  0  0  0  0  0  0
   -0.1181    1.1763    0.0000 C   0  0  0  0  0  0  0  0  0  0  0  0
   -0.8326    1.5888    0.0000 O   0  0  0  0  0  0  0  0  0  0  0  0
    0.5964    1.5888    0.0000 N   0  0  0  0  0  0  0  0  0  0  0  0
  2  1  1  0
  2  4  2  0
  3  2  1  0
  7  3  2  0
  4  5  1  0
  5  6  2  0
  7  6  1  0
  7  8  1  0
  8  9  2  0
  8 10  1  0
M  END

> <chembl_id>
CHEMBL81977

> <chembl_pref_name>
3-AMINOBENZAMIDE

$$$$

     RDKit          2D

  9  9  0  0  0  0  0  0  0  0999 V2000
    0.3167   -3.0542    0.0000 C   0  0  0  0  0  0  0  0  0  0  0  0
    1.0292   -3.4667    0.0000 N   0  0  0  0  0  0  0  0  0  0  0  0
    0.3167   -2.2292    0.0000 N   0  0  0  0  0  0  0  0  0  0  0  0
    1.7417   -3.0542    0.0000 C   0  0  0  0  0  0  0  0  0  0  0  0
    1.7417   -2.2292    0.0000 C   0  0  0  0  0  0  0  0  0  0  0  0
    1.0292   -1.8167    0.0000 C   0  0  0  0  0  0  0  0  0  0  0  0
   -0.3958   -3.4667    0.0000 S   0  0  0  0  0  0  0  0  0  0  0  0
    1.0292   -0.9917    0.0000 O   0  0  0  0  0  0  0  0  0  0  0  0
    2.4542   -3.4667    0.0000 N   0  0  0  0  0  0  0  0  0  0  0  0
  2  1  2  0
  3  1  1  0
  4  2  1  0
  5  6  1  0
  6  3  2  0
  7  1  1  0
  8  6  1  0
  9  4  1  0
  5  4  2  0
M  END

> <chembl_id>
CHEMBL47922

> <chembl_pref_name>
None

$$$$

     RDKit          2D

 10 10  0  0  1  0  0  0  0  0999 V2000
    4.8750   -4.6167    0.0000 C   0  0  0  0  0  0  0  0  0  0  0  0
    6.1042   -4.6125    0.0000 N   0  0  0  0  0  0  0  0  0  0  0  0
    4.2667   -4.9750    0.0000 C   0  0  0  0  0  0  0  0  0  0  0  0
    5.4917   -4.9667    0.0000 C   0  0  0  0  0  0  0  0  0  0  0  0
    4.2667   -5.6875    0.0000 C   0  0  0  0  0  0  0  0  0  0  0  0
    3.6500   -4.6250    0.0000 C   0  0  0  0  0  0  0  0  0  0  0  0
    5.4917   -5.6792    0.0000 C   0  0  0  0  0  0  0  0  0  0  0  0
    3.6542   -6.0417    0.0000 C   0  0  0  0  0  0  0  0  0  0  0  0
    3.0375   -4.9792    0.0000 C   0  0  0  0  0  0  0  0  0  0  0  0
    3.0375   -5.6875    0.0000 C   0  0  0  0  0  0  0  0  0  0  0  0
  4  2  1  1
  3  1  1  0
  4  1  1  0
  5  3  1  0
  6  3  2  0
  7  4  1  0
  8  5  2  0
  9  6  1  0
 10  9  2  0
 10  8  1  0
M  END

> <chembl_id>
CHEMBL612

> <chembl_pref_name>
DEXTROAMPHETAMINE

$$$$

     RDKit          2D

  8  8  0  0  0  0  0  0  0  0999 V2000
    4.9292   -6.0292    0.0000 N   0  0  0  0  0  0  0  0  0  0  0  0
    4.9292   -4.3792    0.0000 N   0  0  0  0  0  0  0  0  0  0  0  0
    5.6417   -4.7917    0.0000 C   0  0  0  0  0  0  0  0  0  0  0  0
    5.6417   -5.6167    0.0000 C   0  0  0  0  0  0  0  0  0  0  0  0
    4.2167   -4.7917    0.0000 C   0  0  0  0  0  0  0  0  0  0  0  0
    4.2167   -5.6167    0.0000 C   0  0  0  0  0  0  0  0  0  0  0  0
    6.3542   -4.3792    0.0000 C   0  0  0  0  0  0  0  0  0  0  0  0
    6.3542   -6.0292    0.0000 C   0  0  0  0  0  0  0  0  0  0  0  0
  2  5  1  0
  3  4  1  0
  4  1  2  0
  5  6  2  0
  6  1  1  0
  7  3  1  0
  8  4  1  0
  3  2  2  0
M  END

> <chembl_id>
CHEMBL96425

> <chembl_pref_name>
None

$$$$

     RDKit          2D

  8  8  0  0  0  0  0  0  0  0999 V2000
    2.8218   -2.1229    0.0000 C   0  0  0  0  0  0  0  0  0  0  0  0
    1.6281   -2.2462    0.0000 C   0  0  0  0  0  0  0  0  0  0  0  0
    1.1385   -3.3418    0.0000 O   0  0  0  0  0  0  0  0  0  0  0  0
    0.7500   -1.0323    0.0000 N   0  0  0  0  0  0  0  0  0  0  0  0
    1.2135    0.3943    0.0000 C   0  0  0  0  0  0  0  0  0  0  0  0
    0.0000    1.2760    0.0000 C   0  0  0  0  0  0  0  0  0  0  0  0
   -1.2135    0.3943    0.0000 N   0  0  0  0  0  0  0  0  0  0  0  0
   -0.7500   -1.0323    0.0000 C   0  0  0  0  0  0  0  0  0  0  0  0
  1  2  1  0
  2  3  2  0
  2  4  1  0
  4  5  1  0
  5  6  2  0
  6  7  1  0
  7  8  2  0
  8  4  1  0
M  END

> <chembl_id>
CHEMBL1592087

> <chembl_pref_name>
None

$$$$

     RDKit          2D

  9 10  0  0  1  0  0  0  0  0999 V2000
    4.8042   -2.5917    0.0000 C   0  0  0  0  0  0  0  0  0  0  0  0
    4.6542   -1.7792    0.0000 C   0  0  0  0  0  0  0  0  0  0  0  0
    5.4292   -2.0417    0.0000 C   0  0  0  0  0  0  0  0  0  0  0  0
    4.5417   -3.3667    0.0000 C   0  0  0  0  0  0  0  0  0  0  0  0
    3.7417   -4.4292    0.0000 N   0  0  0  0  0  0  0  0  0  0  0  0
    5.0167   -4.0417    0.0000 N   0  0  0  0  0  0  0  0  0  0  0  0
    4.5167   -4.7042    0.0000 C   0  0  0  0  0  0  0  0  0  0  0  0
    3.7542   -3.6042    0.0000 C   0  0  0  0  0  0  0  0  0  0  0  0
    5.6417   -1.2417    0.0000 N   0  0  0  0  0  0  0  0  0  0  0  0
  2  1  1  0
  3  1  1  0
  1  4  1  6
  5  8  1  0
  6  4  1  0
  7  6  2  0
  8  4  2  0
  3  9  1  1
  2  3  1  0
  5  7  1  0
M  END

> <chembl_id>
CHEMBL13559

> <chembl_pref_name>
VUF-5296

$$$$

     RDKit          2D

  8  8  0  0  0  0  0  0  0  0999 V2000
    8.8000    0.5958    0.0000 N   0  0  0  0  0  0  0  0  0  0  0  0
    9.6250    0.5958    0.0000 N   0  0  0  0  0  0  0  0  0  0  0  0
    9.8818    1.3799    0.0000 C   0  0  0  0  0  0  0  0  0  0  0  0
    9.2125    1.8667    0.0000 N   0  0  0  0  0  0  0  0  0  0  0  0
    8.5474    1.3799    0.0000 C   0  0  0  0  0  0  0  0  0  0  0  0
   10.6667    1.6338    0.0000 S   0  0  0  0  0  0  0  0  0  0  0  0
    7.7627    1.6345    0.0000 C   0  0  0  0  0  0  0  0  0  0  0  0
    7.1499    1.0822    0.0000 C   0  0  0  0  0  0  0  0  0  0  0  0
  3  4  1  0
  4  5  1  0
  5  1  2  0
  1  2  1  0
  3  6  1  0
  5  7  1  0
  2  3  2  0
  7  8  1  0
M  END

> <chembl_id>
CHEMBL1935506

> <chembl_pref_name>
None

$$$$

     RDKit          2D

  7  7  0  0  0  0  0  0  0  0999 V2000
    8.1194   -9.2427    0.0000 C   0  0  0  0  0  0  0  0  0  0  0  0
    8.1182  -10.0709    0.0000 N   0  0  0  0  0  0  0  0  0  0  0  0
    8.8337  -10.4842    0.0000 C   0  0  0  0  0  0  0  0  0  0  0  0
    9.5509  -10.0704    0.0000 N   0  0  0  0  0  0  0  0  0  0  0  0
    9.5480   -9.2391    0.0000 C   0  0  0  0  0  0  0  0  0  0  0  0
    8.8319   -8.8295    0.0000 C   0  0  0  0  0  0  0  0  0  0  0  0
    8.8335  -11.3100    0.0000 O   0  0  0  0  0  0  0  0  0  0  0  0
  3  4  2  0
  4  5  1  0
  2  3  1  0
  5  6  2  0
  6  1  1  0
  1  2  2  0
  3  7  1  0
M  END

> <chembl_id>
CHEMBL1650607

> <chembl_pref_name>
None

$$$$

     RDKit          2D

  8  8  0  0  0  0  0  0  0  0999 V2000
   -1.0000   -1.6167    0.0000 N   0  0  0  0  0  0  0  0  0  0  0  0
   -0.5833   -0.3500    0.0000 N   0  0  0  0  0  0  0  0  0  0  0  0
   -1.2583   -0.8250    0.0000 C   0  0  0  0  0  0  0  0  0  0  0  0
   -0.1833   -1.6167    0.0000 C   0  0  0  0  0  0  0  0  0  0  0  0
    0.0750   -0.8417    0.0000 C   0  0  0  0  0  0  0  0  0  0  0  0
   -0.5750    0.4750    0.0000 C   0  0  0  0  0  0  0  0  0  0  0  0
    0.1417    0.8833    0.0000 C   0  0  0  0  0  0  0  0  0  0  0  0
    0.1500    1.7083    0.0000 C   0  0  0  0  0  0  0  0  0  0  0  0
  2  3  1  0
  3  1  2  0
  4  1  1  0
  5  4  2  0
  6  2  1  0
  7  6  1  0
  8  7  1  0
  2  5  1  0
M  END

> <chembl_id>
CHEMBL95929

> <chembl_pref_name>
None

$$$$

     RDKit          2D

 10 10  0  0  0  0  0  0  0  0999 V2000
   -4.1556    0.5875    0.0000 C   0  0  0  0  0  0  0  0  0  0  0  0
   -4.1568   -0.2398    0.0000 C   0  0  0  0  0  0  0  0  0  0  0  0
   -3.4419   -0.6527    0.0000 C   0  0  0  0  0  0  0  0  0  0  0  0
   -2.7255   -0.2394    0.0000 C   0  0  0  0  0  0  0  0  0  0  0  0
   -2.7284    0.5912    0.0000 C   0  0  0  0  0  0  0  0  0  0  0  0
   -3.4437    1.0003    0.0000 C   0  0  0  0  0  0  0  0  0  0  0  0
   -3.4462    1.8253    0.0000 C   0  0  0  0  0  0  0  0  0  0  0  0
   -2.7330    2.2399    0.0000 C   0  0  0  0  0  0  0  0  0  0  0  0
   -2.7354    3.0649    0.0000 O   0  0  0  0  0  0  0  0  0  0  0  0
   -3.4421   -1.4777    0.0000 O   0  0  0  0  0  0  0  0  0  0  0  0
  2  3  1  0
  5  6  2  0
  6  1  1  0
  1  2  2  0
  6  7  1  0
  3  4  2  0
  7  8  1  0
  8  9  1  0
  4  5  1  0
  3 10  1  0
M  END

> <chembl_id>
CHEMBL53566

> <chembl_pref_name>
TYROSOL

$$$$

     RDKit          2D

 11 12  0  0  0  0  0  0  0  0999 V2000
    2.8292   -1.8417    0.0000 C   0  0  0  0  0  0  0  0  0  0  0  0
    4.2625   -2.6667    0.0000 N   0  0  0  0  0  0  0  0  0  0  0  0
    2.1167   -1.4292    0.0000 C   0  0  0  0  0  0  0  0  0  0  0  0
    2.8292   -2.6667    0.0000 C   0  0  0  0  0  0  0  0  0  0  0  0
    2.1125   -0.6042    0.0000 O   0  0  0  0  0  0  0  0  0  0  0  0
    3.5417   -3.0792    0.0000 C   0  0  0  0  0  0  0  0  0  0  0  0
    3.5417   -1.4250    0.0000 C   0  0  0  0  0  0  0  0  0  0  0  0
    1.4042   -2.6667    0.0000 C   0  0  0  0  0  0  0  0  0  0  0  0
    4.2625   -1.8417    0.0000 C   0  0  0  0  0  0  0  0  0  0  0  0
    2.1167   -3.0792    0.0000 C   0  0  0  0  0  0  0  0  0  0  0  0
    1.4042   -1.8417    0.0000 C   0  0  0  0  0  0  0  0  0  0  0  0
  2  9  1  0
  3  1  2  0
  4  1  1  0
  5  3  1  0
  6  4  1  0
  7  1  1  0
  8 10  1  0
  9  7  1  0
 10  4  2  0
 11  3  1  0
  2  6  1  0
  8 11  2  0
M  END

> <chembl_id>
CHEMBL308021

> <chembl_pref_name>
None

$$$$

     RDKit          2D

  9  9  0  0  0  0  0  0  0  0999 V2000
   -0.1886   -1.2571    0.0000 O   0  0  0  0  0  0  0  0  0  0  0  0
    1.2404   -1.2571    0.0000 C   0  0  0  0  0  0  0  0  0  0  0  0
    1.9549   -0.8446    0.0000 C   0  0  0  0  0  0  0  0  0  0  0  0
    1.2404   -2.0821    0.0000 C   0  0  0  0  0  0  0  0  0  0  0  0
    2.6693   -1.2571    0.0000 C   0  0  0  0  0  0  0  0  0  0  0  0
    0.5259   -0.8446    0.0000 C   0  0  0  0  0  0  0  0  0  0  0  0
    1.9549   -2.4946    0.0000 C   0  0  0  0  0  0  0  0  0  0  0  0
    2.6693   -2.0821    0.0000 C   0  0  0  0  0  0  0  0  0  0  0  0
    1.9549   -0.0196    0.0000 C   0  0  0  0  0  0  0  0  0  0  0  0
  1  6  2  0
  2  3  2  0
  2  4  1  0
  2  6  1  0
  3  5  1  0
  3  9  1  0
  4  7  2  0
  5  8  2  0
  7  8  1  0
M  END

> <chembl_id>
CHEMBL1487138

> <chembl_pref_name>
None

$$$$

     RDKit          2D

 10 10  0  0  0  0  0  0  0  0999 V2000
    5.9167   -2.6042    0.0000 N   0  0  0  0  0  0  0  0  0  0  0  0
    5.2042   -2.1917    0.0000 C   0  0  0  0  0  0  0  0  0  0  0  0
    5.9167   -0.9542    0.0000 C   0  0  0  0  0  0  0  0  0  0  0  0
    5.2042   -1.3667    0.0000 C   0  0  0  0  0  0  0  0  0  0  0  0
    6.6375   -2.1917    0.0000 C   0  0  0  0  0  0  0  0  0  0  0  0
    6.6375   -1.3667    0.0000 C   0  0  0  0  0  0  0  0  0  0  0  0
    4.4917   -2.6042    0.0000 N   0  0  0  0  0  0  0  0  0  0  0  0
    5.9167   -0.1292    0.0000 C   0  0  0  0  0  0  0  0  0  0  0  0
    7.3500   -0.9500    0.0000 C   0  0  0  0  0  0  0  0  0  0  0  0
    8.0667   -1.3542    0.0000 C   0  0  0  0  0  0  0  0  0  0  0  0
  2  1  1  0
  3  6  2  0
  4  2  2  0
  5  1  2  0
  6  5  1  0
  7  2  1  0
  8  3  1  0
  9  6  1  0
 10  9  1  0
  4  3  1  0
M  END

> <chembl_id>
CHEMBL61599

> <chembl_pref_name>
None

$$$$

     RDKit          2D

  9  9  0  0  0  0  0  0  0  0999 V2000
   -1.4148   -2.5438    0.0000 Cl  0  0  0  0  0  0  0  0  0  0  0  0
   -0.6772   -1.0763    0.0000 O   0  0  0  0  0  0  0  0  0  0  0  0
    0.7517   -1.0763    0.0000 O   0  0  0  0  0  0  0  0  0  0  0  0
    0.7047   -2.7987    0.0000 N   0  0  0  0  0  0  0  0  0  0  0  0
   -0.3752   -3.5833    0.0000 N   0  0  0  0  0  0  0  0  0  0  0  0
    0.4498   -3.5833    0.0000 N   0  0  0  0  0  0  0  0  0  0  0  0
    0.0373   -2.3138    0.0000 C   0  0  0  0  0  0  0  0  0  0  0  0
   -0.6302   -2.7987    0.0000 C   0  0  0  0  0  0  0  0  0  0  0  0
    0.0373   -1.4888    0.0000 C   0  0  0  0  0  0  0  0  0  0  0  0
  1  8  1  0
  2  9  2  0
  3  9  1  0
  4  6  2  0
  4  7  1  0
  5  6  1  0
  5  8  1  0
  7  8  2  0
  7  9  1  0
M  END

> <chembl_id>
CHEMBL1975480

> <chembl_pref_name>
None

$$$$

     RDKit          2D

  8  8  0  0  0  0  0  0  0  0999 V2000
    7.9814   -5.0261    0.0000 C   0  0  0  0  0  0  0  0  0  0  0  0
    7.9802   -5.8531    0.0000 C   0  0  0  0  0  0  0  0  0  0  0  0
    8.6946   -6.2657    0.0000 C   0  0  0  0  0  0  0  0  0  0  0  0
    9.4107   -5.8526    0.0000 C   0  0  0  0  0  0  0  0  0  0  0  0
    9.4078   -5.0225    0.0000 C   0  0  0  0  0  0  0  0  0  0  0  0
    8.6928   -4.6137    0.0000 C   0  0  0  0  0  0  0  0  0  0  0  0
    8.6904   -3.7892    0.0000 N   0  0  0  0  0  0  0  0  0  0  0  0
    8.6944   -7.0902    0.0000 N   0  0  0  0  0  0  0  0  0  0  0  0
  4  5  1  0
  2  3  1  0
  5  6  2  0
  6  1  1  0
  1  2  2  0
  6  7  1  0
  3  4  2  0
  3  8  1  0
M  END

> <chembl_id>
CHEMBL403741

> <chembl_pref_name>
None

$$$$

     RDKit          2D

  8  8  0  0  0  0  0  0  0  0999 V2000
    0.8250    0.0000    0.0000 N   0  0  0  0  0  0  0  0  0  0  0  0
    0.0000   -1.4280    0.0000 N   0  0  0  0  0  0  0  0  0  0  0  0
    0.8250   -1.4280    0.0000 C   0  0  0  0  0  0  0  0  0  0  0  0
    1.2375   -0.7153    0.0000 C   0  0  0  0  0  0  0  0  0  0  0  0
    2.0625   -0.7153    0.0000 C   0  0  0  0  0  0  0  0  0  0  0  0
    1.2375   -2.1434    0.0000 C   0  0  0  0  0  0  0  0  0  0  0  0
    2.4723   -1.4280    0.0000 C   0  0  0  0  0  0  0  0  0  0  0  0
    2.0625   -2.1434    0.0000 C   0  0  0  0  0  0  0  0  0  0  0  0
  1  4  1  0
  2  3  1  0
  3  4  2  0
  3  6  1  0
  4  5  1  0
  5  7  2  0
  6  8  2  0
  7  8  1  0
M  END

> <chembl_id>
CHEMBL70582

> <chembl_pref_name>
None

$$$$

     RDKit          2D

  9  9  0  0  0  0  0  0  0  0999 V2000
   -4.0824   -2.9857    0.0000 C   0  0  0  0  0  0  0  0  0  0  0  0
   -4.0835   -3.8126    0.0000 C   0  0  0  0  0  0  0  0  0  0  0  0
   -3.3691   -4.2252    0.0000 C   0  0  0  0  0  0  0  0  0  0  0  0
   -3.3709   -2.5732    0.0000 C   0  0  0  0  0  0  0  0  0  0  0  0
   -2.6559   -2.9820    0.0000 C   0  0  0  0  0  0  0  0  0  0  0  0
   -2.6552   -3.8085    0.0000 C   0  0  0  0  0  0  0  0  0  0  0  0
   -3.3772   -5.0470    0.0000 O   0  0  0  0  0  0  0  0  0  0  0  0
   -4.7965   -2.5736    0.0000 O   0  0  0  0  0  0  0  0  0  0  0  0
   -4.7979   -4.2243    0.0000 N   0  0  0  0  0  0  0  0  0  0  0  0
  4  1  2  0
  2  3  2  0
  5  6  2  0
  3  6  1  0
  3  7  1  0
  1  2  1  0
  1  8  1  0
  5  4  1  0
  2  9  1  0
M  END

> <chembl_id>
CHEMBL403239

> <chembl_pref_name>
None

$$$$

     RDKit          2D

 10 11  0  0  0  0  0  0  0  0999 V2000
   -0.1875   -1.4417    0.0000 N   0  0  0  0  0  0  0  0  0  0  0  0
   -0.5333   -1.9292    0.0000 N   0  0  0  0  0  0  0  0  0  0  0  0
   -1.1000   -1.7417    0.0000 N   0  0  0  0  0  0  0  0  0  0  0  0
   -0.5333   -0.9625    0.0000 N   0  0  0  0  0  0  0  0  0  0  0  0
   -1.1000   -1.1417    0.0000 C   0  0  0  0  0  0  0  0  0  0  0  0
   -1.5708   -2.1167    0.0000 C   0  0  0  0  0  0  0  0  0  0  0  0
   -1.5708   -0.7750    0.0000 C   0  0  0  0  0  0  0  0  0  0  0  0
   -2.1500   -1.9792    0.0000 C   0  0  0  0  0  0  0  0  0  0  0  0
   -2.1500   -0.9042    0.0000 C   0  0  0  0  0  0  0  0  0  0  0  0
   -2.4083   -1.4500    0.0000 C   0  0  0  0  0  0  0  0  0  0  0  0
  2  1  2  0
  3  2  1  0
  4  1  1  0
  5  4  2  0
  6  3  1  0
  7  5  1  0
  8  6  1  0
  9  7  1  0
 10  9  1  0
  3  5  1  0
  8 10  1  0
M  END

> <chembl_id>
CHEMBL116943

> <chembl_pref_name>
PENTYLENETETRAZOL

$$$$

     RDKit          2D

 10 10  0  0  0  0  0  0  0  0999 V2000
   14.2966  -20.8723    0.0000 O   0  0  0  0  0  0  0  0  0  0  0  0
   13.5822  -20.4598    0.0000 C   0  0  0  0  0  0  0  0  0  0  0  0
   12.8677  -20.8723    0.0000 C   0  0  0  0  0  0  0  0  0  0  0  0
   12.1532  -20.4598    0.0000 C   0  0  0  0  0  0  0  0  0  0  0  0
   11.4388  -20.8723    0.0000 O   0  0  0  0  0  0  0  0  0  0  0  0
   12.1532  -19.6348    0.0000 C   0  0  0  0  0  0  0  0  0  0  0  0
   12.8677  -19.2223    0.0000 C   0  0  0  0  0  0  0  0  0  0  0  0
   13.5822  -19.6348    0.0000 C   0  0  0  0  0  0  0  0  0  0  0  0
   14.2966  -19.2223    0.0000 F   0  0  0  0  0  0  0  0  0  0  0  0
   11.4388  -19.2223    0.0000 F   0  0  0  0  0  0  0  0  0  0  0  0
  1  2  1  0
  2  3  1  0
  3  4  2  0
  4  5  1  0
  4  6  1  0
  6  7  2  0
  7  8  1  0
  2  8  2  0
  8  9  1  0
  6 10  1  0
M  END

> <chembl_id>
CHEMBL2332784

> <chembl_pref_name>
None

$$$$

     RDKit          2D

 10 10  0  0  0  0  0  0  0  0999 V2000
   -0.7141    0.4124    0.0000 C   0  0  0  0  0  0  0  0  0  0  0  0
   -0.7152   -0.4146    0.0000 C   0  0  0  0  0  0  0  0  0  0  0  0
   -0.0008   -0.8272    0.0000 C   0  0  0  0  0  0  0  0  0  0  0  0
    0.7152   -0.4141    0.0000 C   0  0  0  0  0  0  0  0  0  0  0  0
    0.7124    0.4160    0.0000 C   0  0  0  0  0  0  0  0  0  0  0  0
   -0.0026    0.8249    0.0000 C   0  0  0  0  0  0  0  0  0  0  0  0
   -0.0010   -1.6517    0.0000 O   0  0  0  0  0  0  0  0  0  0  0  0
   -0.7152   -2.0638    0.0000 C   0  0  0  0  0  0  0  0  0  0  0  0
   -0.0051    1.6493    0.0000 O   0  0  0  0  0  0  0  0  0  0  0  0
    0.7078    2.0638    0.0000 C   0  0  0  0  0  0  0  0  0  0  0  0
  1  2  2  0
  2  3  1  0
  3  4  2  0
  4  5  1  0
  5  6  2  0
  6  1  1  0
  3  7  1  0
  7  8  1  0
  6  9  1  0
  9 10  1  0
M  END

> <chembl_id>
CHEMBL1668604

> <chembl_pref_name>
1,4-DIMETHOXYBENZENE

$$$$

     RDKit          2D

 11 11  0  0  0  0  0  0  0  0999 V2000
    5.9940  -14.6886    0.0000 N   0  0  0  0  0  0  0  0  0  0  0  0
    5.1689  -14.6886    0.0000 C   0  0  0  0  0  0  0  0  0  0  0  0
    4.7565  -13.9741    0.0000 N   0  0  0  0  0  0  0  0  0  0  0  0
    4.7565  -15.4030    0.0000 N   0  0  0  0  0  0  0  0  0  0  0  0
    6.4065  -15.4030    0.0000 C   0  0  0  0  0  0  0  0  0  0  0  0
    7.2314  -15.4030    0.0000 C   0  0  0  0  0  0  0  0  0  0  0  0
    7.6440  -14.6886    0.0000 C   0  0  0  0  0  0  0  0  0  0  0  0
    8.4689  -14.6886    0.0000 C   0  0  0  0  0  0  0  0  0  0  0  0
    8.8814  -15.4030    0.0000 C   0  0  0  0  0  0  0  0  0  0  0  0
    8.4689  -16.1175    0.0000 C   0  0  0  0  0  0  0  0  0  0  0  0
    7.6440  -16.1175    0.0000 C   0  0  0  0  0  0  0  0  0  0  0  0
  1  2  1  0
  2  3  1  0
  2  4  2  0
  5  6  1  0
  6  7  1  0
  7  8  2  0
  8  9  1  0
  9 10  2  0
 10 11  1  0
  6 11  2  0
  1  5  1  0
M  END

> <chembl_id>
CHEMBL288640

> <chembl_pref_name>
None

$$$$

     RDKit          2D

  9  9  0  0  0  0  0  0  0  0999 V2000
    4.1292   -6.1625    0.0000 N   0  0  0  0  0  0  0  0  0  0  0  0
    4.9542   -6.2000    0.0000 C   0  0  0  0  0  0  0  0  0  0  0  0
    4.4792   -7.4542    0.0000 N   0  0  0  0  0  0  0  0  0  0  0  0
    3.8292   -6.9375    0.0000 C   0  0  0  0  0  0  0  0  0  0  0  0
    5.1667   -7.0000    0.0000 C   0  0  0  0  0  0  0  0  0  0  0  0
    5.4667   -5.5625    0.0000 C   0  0  0  0  0  0  0  0  0  0  0  0
    6.2875   -5.6875    0.0000 C   0  0  0  0  0  0  0  0  0  0  0  0
    7.6667   -5.3125    0.0000 N   0  0  0  0  0  0  0  0  0  0  0  0
    6.8667   -5.1000    0.0000 C   0  0  0  0  0  0  0  0  0  0  0  0
  2  1  1  0
  3  4  1  0
  4  1  2  0
  5  2  2  0
  6  2  1  0
  7  6  2  0
  8  9  1  0
  9  7  1  0
  5  3  1  0
M  END

> <chembl_id>
CHEMBL119195

> <chembl_pref_name>
None

$$$$

     RDKit          2D

  9  9  0  0  0  0  0  0  0  0999 V2000
    3.9417   -1.3167    0.0000 C   0  0  0  0  0  0  0  0  0  0  0  0
    4.2750   -0.8167    0.0000 C   0  0  0  0  0  0  0  0  0  0  0  0
    3.6917   -2.2542    0.0000 S   0  0  0  0  0  0  0  0  0  0  0  0
    4.1542   -1.8792    0.0000 C   0  0  0  0  0  0  0  0  0  0  0  0
    3.3417   -1.3500    0.0000 C   0  0  0  0  0  0  0  0  0  0  0  0
    3.1875   -1.9292    0.0000 C   0  0  0  0  0  0  0  0  0  0  0  0
    4.0042   -0.2792    0.0000 C   0  0  0  0  0  0  0  0  0  0  0  0
    5.2042   -0.3542    0.0000 N   0  0  0  0  0  0  0  0  0  0  0  0
    4.8750   -0.8542    0.0000 C   0  0  0  0  0  0  0  0  0  0  0  0
  2  1  1  0
  3  4  1  0
  4  1  2  0
  5  1  1  0
  6  5  2  0
  7  2  2  0
  8  9  1  0
  9  2  1  0
  6  3  1  0
M  END

> <chembl_id>
CHEMBL108921

> <chembl_pref_name>
None

$$$$

     RDKit          2D

 11 12  0  0  0  0  0  0  0  0999 V2000
   -1.9118  -14.1655    0.0000 N   0  0  0  0  0  0  0  0  0  0  0  0
   -2.6262  -13.7530    0.0000 C   0  0  0  0  0  0  0  0  0  0  0  0
   -2.6262  -12.9280    0.0000 C   0  0  0  0  0  0  0  0  0  0  0  0
   -1.9118  -12.5155    0.0000 C   0  0  0  0  0  0  0  0  0  0  0  0
   -1.1973  -12.9280    0.0000 C   0  0  0  0  0  0  0  0  0  0  0  0
   -0.4828  -12.5155    0.0000 C   0  0  0  0  0  0  0  0  0  0  0  0
    0.2317  -12.9280    0.0000 C   0  0  0  0  0  0  0  0  0  0  0  0
    0.2317  -13.7530    0.0000 C   0  0  0  0  0  0  0  0  0  0  0  0
   -0.4828  -14.1655    0.0000 C   0  0  0  0  0  0  0  0  0  0  0  0
   -1.1973  -13.7530    0.0000 C   0  0  0  0  0  0  0  0  0  0  0  0
   -3.3407  -14.1655    0.0000 O   0  0  0  0  0  0  0  0  0  0  0  0
  1  2  1  0
  2  3  1  0
  3  4  1  0
  4  5  1  0
  5  6  1  0
  6  7  2  0
  7  8  1  0
  8  9  2  0
  9 10  1  0
  1 10  1  0
  5 10  2  0
  2 11  2  0
M  END

> <chembl_id>
CHEMBL388582

> <chembl_pref_name>
None

$$$$

     RDKit          2D

  6  6  0  0  0  0  0  0  0  0999 V2000
    0.7145    0.4125    0.0000 C   0  0  0  0  0  0  0  0  0  0  0  0
    0.7145   -0.4125    0.0000 C   0  0  0  0  0  0  0  0  0  0  0  0
   -0.0000   -0.8250    0.0000 C   0  0  0  0  0  0  0  0  0  0  0  0
   -0.7145   -0.4125    0.0000 C   0  0  0  0  0  0  0  0  0  0  0  0
   -0.7145    0.4125    0.0000 C   0  0  0  0  0  0  0  0  0  0  0  0
    0.0000    0.8250    0.0000 C   0  0  0  0  0  0  0  0  0  0  0  0
  1  2  2  0
  1  6  1  0
  2  3  1  0
  3  4  2  0
  4  5  1  0
  5  6  2  0
M  END

> <chembl_id>
CHEMBL277500

> <chembl_pref_name>
BENZENE

$$$$

     RDKit          2D

  7  7  0  0  0  0  0  0  0  0999 V2000
   -0.7517    0.1892    0.0000 N   0  0  0  0  0  0  0  0  0  0  0  0
   -0.0373    0.6017    0.0000 C   0  0  0  0  0  0  0  0  0  0  0  0
    0.6772    0.1892    0.0000 C   0  0  0  0  0  0  0  0  0  0  0  0
    0.6772   -0.6358    0.0000 C   0  0  0  0  0  0  0  0  0  0  0  0
   -0.0373   -1.0483    0.0000 C   0  0  0  0  0  0  0  0  0  0  0  0
   -0.7517   -0.6358    0.0000 C   0  0  0  0  0  0  0  0  0  0  0  0
   -0.0373    1.4267    0.0000 N   0  0  0  0  0  0  0  0  0  0  0  0
  2  1  1  0
  6  1  2  0
  2  3  2  0
  2  7  1  0
  3  4  1  0
  4  5  2  0
  5  6  1  0
M  END

> <chembl_id>
CHEMBL21619

> <chembl_pref_name>
2-AMINOPYRIDINE

$$$$

     RDKit          2D

 10 10  0  0  0  0  0  0  0  0999 V2000
    1.2990   -0.7500    0.0000 C   0  0  0  0  0  0  0  0  0  0  0  0
    0.0000   -1.5000    0.0000 N   0  0  0  0  0  0  0  0  0  0  0  0
   -1.2990   -0.7500    0.0000 C   0  0  0  0  0  0  0  0  0  0  0  0
   -1.2990    0.7500    0.0000 C   0  0  0  0  0  0  0  0  0  0  0  0
    0.0000    1.5000    0.0000 C   0  0  0  0  0  0  0  0  0  0  0  0
    1.2990    0.7500    0.0000 C   0  0  0  0  0  0  0  0  0  0  0  0
   -0.0031    3.0008    0.0000 C   0  0  0  0  0  0  0  0  0  0  0  0
   -1.3039    3.7494    0.0000 N   0  0  0  0  0  0  0  0  0  0  0  0
    1.0351    3.6026    0.0000 O   0  0  0  0  0  0  0  0  0  0  0  0
   -1.3064    4.9494    0.0000 N   0  0  0  0  0  0  0  0  0  0  0  0
  2  3  1  0
  5  6  2  0
  6  1  1  0
  1  2  2  0
  5  7  1  0
  3  4  2  0
  7  8  1  0
  7  9  2  0
  4  5  1  0
  8 10  1  0
M  END

> <chembl_id>
CHEMBL64

> <chembl_pref_name>
ISONIAZID

$$$$

     RDKit          2D

  8  8  0  0  0  0  0  0  0  0999 V2000
    1.6250    2.0208    0.0000 C   0  0  0  0  0  0  0  0  0  0  0  0
    2.4542    2.0208    0.0000 C   0  0  0  0  0  0  0  0  0  0  0  0
    2.8625    2.7375    0.0000 F   0  0  0  0  0  0  0  0  0  0  0  0
    1.2125    1.3083    0.0000 C   0  0  0  0  0  0  0  0  0  0  0  0
    2.4542    0.5958    0.0000 C   0  0  0  0  0  0  0  0  0  0  0  0
    2.8667    1.3083    0.0000 C   0  0  0  0  0  0  0  0  0  0  0  0
    1.6250    0.5958    0.0000 C   0  0  0  0  0  0  0  0  0  0  0  0
    0.3875    1.3125    0.0000 C   0  0  0  0  0  0  0  0  0  0  0  0
  2  1  2  0
  3  2  1  0
  4  1  1  0
  5  7  1  0
  6  2  1  0
  7  4  2  0
  8  4  1  0
  6  5  2  0
M  END

> <chembl_id>
CHEMBL345698

> <chembl_pref_name>
None

$$$$

     RDKit          2D

 10 10  0  0  0  0  0  0  0  0999 V2000
    0.2851    0.1807    0.0000 N   0  0  0  0  0  0  0  0  0  0  0  0
    0.2851   -0.6443    0.0000 C   0  0  0  0  0  0  0  0  0  0  0  0
    0.9996   -1.0568    0.0000 C   0  0  0  0  0  0  0  0  0  0  0  0
   -0.4293   -1.0568    0.0000 C   0  0  0  0  0  0  0  0  0  0  0  0
    0.9996    0.5932    0.0000 C   0  0  0  0  0  0  0  0  0  0  0  0
    0.9996   -1.8818    0.0000 C   0  0  0  0  0  0  0  0  0  0  0  0
   -0.4293   -1.8818    0.0000 C   0  0  0  0  0  0  0  0  0  0  0  0
    0.2851   -2.2943    0.0000 C   0  0  0  0  0  0  0  0  0  0  0  0
    0.9996    1.4182    0.0000 C   0  0  0  0  0  0  0  0  0  0  0  0
    1.7141    0.1807    0.0000 C   0  0  0  0  0  0  0  0  0  0  0  0
  1  2  1  0
  1  5  1  0
  2  3  2  0
  2  4  1  0
  3  6  1  0
  4  7  2  0
  5  9  1  0
  5 10  1  0
  6  8  2  0
  7  8  1  0
M  END

> <chembl_id>
CHEMBL1529910

> <chembl_pref_name>
None

$$$$

     RDKit          2D

 10 10  0  0  0  0  0  0  0  0999 V2000
    7.1985   -0.7121    0.0000 C   0  0  0  0  0  0  0  0  0  0  0  0
    7.1974   -1.5389    0.0000 C   0  0  0  0  0  0  0  0  0  0  0  0
    7.9117   -1.9516    0.0000 C   0  0  0  0  0  0  0  0  0  0  0  0
    8.6277   -1.5385    0.0000 C   0  0  0  0  0  0  0  0  0  0  0  0
    8.6249   -0.7084    0.0000 C   0  0  0  0  0  0  0  0  0  0  0  0
    7.9100   -0.2995    0.0000 C   0  0  0  0  0  0  0  0  0  0  0  0
    7.9075    0.5250    0.0000 C   0  0  0  0  0  0  0  0  0  0  0  0
    8.6203    0.9393    0.0000 O   0  0  0  0  0  0  0  0  0  0  0  0
    7.1922    0.9352    0.0000 O   0  0  0  0  0  0  0  0  0  0  0  0
    7.9037   -2.7734    0.0000 F   0  0  0  0  0  0  0  0  0  0  0  0
  5  6  2  0
  6  1  1  0
  2  3  1  0
  6  7  1  0
  7  8  1  0
  3  4  2  0
  7  9  2  0
  1  2  2  0
  3 10  1  0
  4  5  1  0
M  END

> <chembl_id>
CHEMBL316860

> <chembl_pref_name>
None

$$$$

     RDKit          2D

 10 10  0  0  0  0  0  0  0  0999 V2000
   14.1727   -6.2418    0.0000 C   0  0  0  0  0  0  0  0  0  0  0  0
   14.1715   -7.0686    0.0000 C   0  0  0  0  0  0  0  0  0  0  0  0
   14.8859   -7.4812    0.0000 C   0  0  0  0  0  0  0  0  0  0  0  0
   15.6019   -7.0681    0.0000 C   0  0  0  0  0  0  0  0  0  0  0  0
   15.5990   -6.2382    0.0000 C   0  0  0  0  0  0  0  0  0  0  0  0
   14.8841   -5.8292    0.0000 C   0  0  0  0  0  0  0  0  0  0  0  0
   14.8816   -5.0047    0.0000 C   0  0  0  0  0  0  0  0  0  0  0  0
   15.5944   -4.5904    0.0000 O   0  0  0  0  0  0  0  0  0  0  0  0
   14.1664   -4.5947    0.0000 O   0  0  0  0  0  0  0  0  0  0  0  0
   14.8778   -8.3029    0.0000 O   0  0  0  0  0  0  0  0  0  0  0  0
  5  6  2  0
  6  1  1  0
  2  3  1  0
  6  7  1  0
  7  8  1  0
  3  4  2  0
  7  9  2  0
  1  2  2  0
  3 10  1  0
  4  5  1  0
M  END

> <chembl_id>
CHEMBL441343

> <chembl_pref_name>
PARABEN

$$$$

     RDKit          2D

 11 12  0  0  0  0  0  0  0  0999 V2000
    1.4375    0.5875    0.0000 C   0  0  0  0  0  0  0  0  0  0  0  0
    2.1042    0.1083    0.0000 N   0  0  0  0  0  0  0  0  0  0  0  0
    0.7667    0.1083    0.0000 N   0  0  0  0  0  0  0  0  0  0  0  0
    1.8500   -0.6792    0.0000 C   0  0  0  0  0  0  0  0  0  0  0  0
    1.0250   -0.6792    0.0000 C   0  0  0  0  0  0  0  0  0  0  0  0
    1.4292    3.0625    0.0000 N   0  0  0  0  0  0  0  0  0  0  0  0
    1.4292    1.4125    0.0000 C   0  0  0  0  0  0  0  0  0  0  0  0
    2.1500    2.6500    0.0000 C   0  0  0  0  0  0  0  0  0  0  0  0
    0.7167    2.6458    0.0000 C   0  0  0  0  0  0  0  0  0  0  0  0
    2.1500    1.8333    0.0000 C   0  0  0  0  0  0  0  0  0  0  0  0
    0.7167    1.8250    0.0000 C   0  0  0  0  0  0  0  0  0  0  0  0
  2  1  1  0
  3  1  1  0
  4  2  1  0
  5  3  1  0
  6  9  1  0
  7  1  1  0
  8 10  1  0
  9 11  2  0
 10  7  2  0
 11  7  1  0
  4  5  2  0
  6  8  2  0
M  END

> <chembl_id>
CHEMBL317842

> <chembl_pref_name>
None

$$$$

     RDKit          2D

  9  9  0  0  0  0  0  0  0  0999 V2000
    5.1347   -3.3976    0.0000 C   0  0  0  0  0  0  0  0  0  0  0  0
    5.8526   -2.9786    0.0000 C   0  0  0  0  0  0  0  0  0  0  0  0
    6.5724   -3.3908    0.0000 C   0  0  0  0  0  0  0  0  0  0  0  0
    6.5754   -4.2218    0.0000 C   0  0  0  0  0  0  0  0  0  0  0  0
    5.8527   -4.6390    0.0000 C   0  0  0  0  0  0  0  0  0  0  0  0
    5.1360   -4.2244    0.0000 C   0  0  0  0  0  0  0  0  0  0  0  0
    4.4157   -2.9855    0.0000 S   0  0  0  0  0  0  0  0  0  0  0  0
    3.6990   -3.4022    0.0000 C   0  0  0  0  0  0  0  0  0  0  0  0
    4.4131   -2.1565    0.0000 O   0  0  0  0  0  0  0  0  0  0  0  0
  4  5  1  0
  2  3  1  0
  5  6  2  0
  6  1  1  0
  1  2  2  0
  1  7  1  0
  3  4  2  0
  7  8  1  0
  7  9  1  0
M  CHG  2   7   1   9  -1
M  END

> <chembl_id>
CHEMBL326279

> <chembl_pref_name>
METHYLPHENYLSULFOXIDE

$$$$

     RDKit          2D

  9  9  0  0  0  0  0  0  0  0999 V2000
   -1.6328   -1.8357    0.0000 C   0  0  0  0  0  0  0  0  0  0  0  0
   -1.0795   -2.4477    0.0000 N   0  0  0  0  0  0  0  0  0  0  0  0
   -0.3265   -2.1107    0.0000 C   0  0  0  0  0  0  0  0  0  0  0  0
   -0.4143   -1.2903    0.0000 C   0  0  0  0  0  0  0  0  0  0  0  0
   -1.2216   -1.1205    0.0000 N   0  0  0  0  0  0  0  0  0  0  0  0
    0.3888   -2.5218    0.0000 C   0  0  0  0  0  0  0  0  0  0  0  0
    1.1025   -2.1080    0.0000 C   0  0  0  0  0  0  0  0  0  0  0  0
    1.8177   -2.5191    0.0000 N   0  0  0  0  0  0  0  0  0  0  0  0
    1.1009   -1.2830    0.0000 C   0  0  0  0  0  0  0  0  0  0  0  0
  4  5  1  0
  5  1  1  0
  1  2  2  0
  3  6  1  0
  6  7  1  0
  2  3  1  0
  7  8  1  0
  3  4  2  0
  7  9  1  1
M  END

> <chembl_id>
CHEMBL268229

> <chembl_pref_name>
None

$$$$

     RDKit          2D

  9  9  0  0  0  0  0  0  0  0999 V2000
   11.5004   -4.3171    0.0000 O   0  0  0  0  0  0  0  0  0  0  0  0
   12.1715   -3.8522    0.0000 N   0  0  0  0  0  0  0  0  0  0  0  0
   11.9401   -3.0703    0.0000 C   0  0  0  0  0  0  0  0  0  0  0  0
   11.1216   -3.0485    0.0000 C   0  0  0  0  0  0  0  0  0  0  0  0
   10.8515   -3.8205    0.0000 C   0  0  0  0  0  0  0  0  0  0  0  0
   12.4368   -2.4213    0.0000 O   0  0  0  0  0  0  0  0  0  0  0  0
   10.0638   -4.0529    0.0000 C   0  0  0  0  0  0  0  0  0  0  0  0
   12.8874   -4.2464    0.0000 C   0  0  0  0  0  0  0  0  0  0  0  0
   12.9039   -5.0635    0.0000 C   0  0  0  0  0  0  0  0  0  0  0  0
  1  2  1  0
  2  3  1  0
  3  4  1  0
  4  5  2  0
  1  5  1  0
  3  6  2  0
  5  7  1  0
  2  8  1  0
  8  9  1  0
M  END

> <chembl_id>
CHEMBL2270260

> <chembl_pref_name>
None

$$$$

     RDKit          2D

  9  9  0  0  0  0  0  0  0  0999 V2000
   -5.4018   -0.8565    0.0000 C   0  0  0  0  0  0  0  0  0  0  0  0
   -5.8193   -1.5683    0.0000 C   0  0  0  0  0  0  0  0  0  0  0  0
   -5.4118   -2.2837    0.0000 C   0  0  0  0  0  0  0  0  0  0  0  0
   -4.5868   -2.2885    0.0000 C   0  0  0  0  0  0  0  0  0  0  0  0
   -4.1711   -1.5720    0.0000 C   0  0  0  0  0  0  0  0  0  0  0  0
   -4.5811   -0.8596    0.0000 C   0  0  0  0  0  0  0  0  0  0  0  0
   -3.3409   -1.5732    0.0000 C   0  0  0  0  0  0  0  0  0  0  0  0
   -2.9289   -2.2898    0.0000 O   0  0  0  0  0  0  0  0  0  0  0  0
   -2.9263   -0.8581    0.0000 O   0  0  0  0  0  0  0  0  0  0  0  0
  4  5  1  0
  2  3  1  0
  5  6  2  0
  6  1  1  0
  1  2  2  0
  3  4  2  0
  7  8  1  0
  7  9  2  0
  5  7  1  0
M  END

> <chembl_id>
CHEMBL541

> <chembl_pref_name>
BENZOIC ACID

$$$$

     RDKit          2D

  9  9  0  0  0  0  0  0  0  0999 V2000
   -0.7569    1.4210    0.0000 O   0  0  0  0  0  0  0  0  0  0  0  0
   -0.0424    1.0085    0.0000 C   0  0  0  0  0  0  0  0  0  0  0  0
    0.6721    1.4210    0.0000 C   0  0  0  0  0  0  0  0  0  0  0  0
   -0.0424    0.1835    0.0000 C   0  0  0  0  0  0  0  0  0  0  0  0
    0.6721   -0.2290    0.0000 C   0  0  0  0  0  0  0  0  0  0  0  0
    0.6721   -1.0540    0.0000 C   0  0  0  0  0  0  0  0  0  0  0  0
   -0.0424   -1.4665    0.0000 C   0  0  0  0  0  0  0  0  0  0  0  0
   -0.7569   -1.0540    0.0000 C   0  0  0  0  0  0  0  0  0  0  0  0
   -0.7569   -0.2290    0.0000 C   0  0  0  0  0  0  0  0  0  0  0  0
  2  1  2  0
  2  3  1  0
  4  2  1  0
  4  5  2  0
  4  9  1  0
  5  6  1  0
  6  7  2  0
  7  8  1  0
  8  9  2  0
M  END

> <chembl_id>
CHEMBL274467

> <chembl_pref_name>
ACETOPHENONE

$$$$

     RDKit          2D

  9  9  0  0  0  0  0  0  0  0999 V2000
    0.5125   -4.0625    0.0000 C   0  0  0  0  0  0  0  0  0  0  0  0
    0.8417   -3.5625    0.0000 C   0  0  0  0  0  0  0  0  0  0  0  0
    0.2542   -5.0000    0.0000 O   0  0  0  0  0  0  0  0  0  0  0  0
    0.7250   -4.6250    0.0000 C   0  0  0  0  0  0  0  0  0  0  0  0
   -0.0875   -4.0917    0.0000 C   0  0  0  0  0  0  0  0  0  0  0  0
   -0.2458   -4.6667    0.0000 C   0  0  0  0  0  0  0  0  0  0  0  0
    0.5750   -3.0250    0.0000 C   0  0  0  0  0  0  0  0  0  0  0  0
    1.7667   -3.0917    0.0000 N   0  0  0  0  0  0  0  0  0  0  0  0
    1.4417   -3.5917    0.0000 C   0  0  0  0  0  0  0  0  0  0  0  0
  2  1  1  0
  3  4  1  0
  4  1  2  0
  5  1  1  0
  6  5  2  0
  7  2  2  0
  8  9  1  0
  9  2  1  0
  6  3  1  0
M  END

> <chembl_id>
CHEMBL108927

> <chembl_pref_name>
None

$$$$

     RDKit          2D

  8  8  0  0  0  0  0  0  0  0999 V2000
    7.8875   -1.6667    0.0000 N   0  0  0  0  0  0  0  0  0  0  0  0
    7.1792   -1.2625    0.0000 C   0  0  0  0  0  0  0  0  0  0  0  0
    8.6000   -1.2625    0.0000 C   0  0  0  0  0  0  0  0  0  0  0  0
    7.1792   -0.4375    0.0000 C   0  0  0  0  0  0  0  0  0  0  0  0
    6.4625   -1.6750    0.0000 O   0  0  0  0  0  0  0  0  0  0  0  0
    8.6000   -0.4375    0.0000 C   0  0  0  0  0  0  0  0  0  0  0  0
    7.8875   -0.0167    0.0000 C   0  0  0  0  0  0  0  0  0  0  0  0
    7.8875   -2.4917    0.0000 C   0  0  0  0  0  0  0  0  0  0  0  0
  2  1  1  0
  3  1  1  0
  4  2  1  0
  5  2  2  0
  6  3  2  0
  7  6  1  0
  8  1  1  0
  4  7  2  0
M  END

> <chembl_id>
CHEMBL12607

> <chembl_pref_name>
None

$$$$

     RDKit          2D

  7  7  0  0  0  0  0  0  0  0999 V2000
   -0.2000   -0.4167    0.0000 C   0  0  0  0  0  0  0  0  0  0  0  0
    0.4500    0.0833    0.0000 C   0  0  0  0  0  0  0  0  0  0  0  0
   -0.6375    0.8458    0.0000 S   0  0  0  0  0  0  0  0  0  0  0  0
    0.1792    0.8583    0.0000 S   0  0  0  0  0  0  0  0  0  0  0  0
   -0.8833    0.0583    0.0000 C   0  0  0  0  0  0  0  0  0  0  0  0
    1.2500   -0.1542    0.0000 S   0  0  0  0  0  0  0  0  0  0  0  0
   -0.1875   -1.2417    0.0000 C   0  0  0  0  0  0  0  0  0  0  0  0
  2  1  1  0
  3  5  1  0
  4  2  1  0
  5  1  2  0
  6  2  2  0
  7  1  1  0
  3  4  1  0
M  END

> <chembl_id>
CHEMBL178491

> <chembl_pref_name>
None

$$$$

     RDKit          2D

  9  9  0  0  0  0  0  0  0  0999 V2000
    4.0917   -2.0250    0.0000 N   0  0  0  0  0  0  0  0  0  0  0  0
    2.5417   -1.7292    0.0000 C   0  0  0  0  0  0  0  0  0  0  0  0
    2.0250   -2.0292    0.0000 C   0  0  0  0  0  0  0  0  0  0  0  0
    1.5042   -1.7292    0.0000 F   0  0  0  0  0  0  0  0  0  0  0  0
    3.0542   -2.0292    0.0000 C   0  0  0  0  0  0  0  0  0  0  0  0
    3.5750   -1.7292    0.0000 C   0  0  0  0  0  0  0  0  0  0  0  0
    2.5417   -2.9292    0.0000 C   0  0  0  0  0  0  0  0  0  0  0  0
    2.0250   -2.6292    0.0000 C   0  0  0  0  0  0  0  0  0  0  0  0
    3.0542   -2.6292    0.0000 C   0  0  0  0  0  0  0  0  0  0  0  0
  2  5  2  0
  3  2  1  0
  4  3  1  0
  5  6  1  0
  6  1  1  0
  7  9  2  0
  8  7  1  0
  9  5  1  0
  8  3  2  0
M  END

> <chembl_id>
CHEMBL12722

> <chembl_pref_name>
None

$$$$

     RDKit          2D

  9  9  0  0  0  0  0  0  0  0999 V2000
    2.5333   -3.1208    0.0000 S   0  0  0  0  0  0  0  0  0  0  0  0
    1.9583   -3.5375    0.0000 C   0  0  0  0  0  0  0  0  0  0  0  0
    1.3917   -3.1208    0.0000 N   0  0  0  0  0  0  0  0  0  0  0  0
    2.3125   -2.4500    0.0000 C   0  0  0  0  0  0  0  0  0  0  0  0
    1.6125   -2.4500    0.0000 C   0  0  0  0  0  0  0  0  0  0  0  0
    1.9542   -4.2458    0.0000 N   0  0  0  0  0  0  0  0  0  0  0  0
    2.7333   -1.8750    0.0000 C   0  0  0  0  0  0  0  0  0  0  0  0
    2.8625   -0.6500    0.0000 N   0  0  0  0  0  0  0  0  0  0  0  0
    2.4417   -1.2250    0.0000 C   0  0  0  0  0  0  0  0  0  0  0  0
  2  1  1  0
  3  2  2  0
  4  1  1  0
  5  4  2  0
  6  2  1  0
  7  4  1  0
  8  9  1  0
  9  7  1  0
  3  5  1  0
M  END

> <chembl_id>
CHEMBL111215

> <chembl_pref_name>
None

$$$$

     RDKit          2D

 11 12  0  0  0  0  0  0  0  0999 V2000
    2.1267   -0.3693    0.0000 C   0  0  0  0  0  0  0  0  0  0  0  0
    2.8091   -0.8330    0.0000 N   0  0  0  0  0  0  0  0  0  0  0  0
    3.4610   -0.3273    0.0000 C   0  0  0  0  0  0  0  0  0  0  0  0
    3.1814    0.4490    0.0000 C   0  0  0  0  0  0  0  0  0  0  0  0
    2.3568    0.4230    0.0000 C   0  0  0  0  0  0  0  0  0  0  0  0
    3.6445    1.1290    0.0000 C   0  0  0  0  0  0  0  0  0  0  0  0
    4.4707    1.1282    0.0000 C   0  0  0  0  0  0  0  0  0  0  0  0
    4.8828    1.8421    0.0000 N   0  0  0  0  0  0  0  0  0  0  0  0
    4.4697    2.5574    0.0000 C   0  0  0  0  0  0  0  0  0  0  0  0
    3.6404    2.5542    0.0000 C   0  0  0  0  0  0  0  0  0  0  0  0
    3.2321    1.8397    0.0000 C   0  0  0  0  0  0  0  0  0  0  0  0
  1  2  1  0
  6  7  2  0
  2  3  1  0
  7  8  1  0
  3  4  1  0
  8  9  2  0
  4  5  2  0
  9 10  1  0
  5  1  1  0
 10 11  2  0
 11  6  1  0
  4  6  1  0
M  END

> <chembl_id>
CHEMBL445408

> <chembl_pref_name>
None

$$$$

     RDKit          2D

 11 12  0  0  0  0  0  0  0  0999 V2000
    8.0257   -0.5159    0.0000 C   0  0  0  0  0  0  0  0  0  0  0  0
    8.7081   -0.9796    0.0000 N   0  0  0  0  0  0  0  0  0  0  0  0
    9.3600   -0.4739    0.0000 C   0  0  0  0  0  0  0  0  0  0  0  0
    9.0804    0.3024    0.0000 C   0  0  0  0  0  0  0  0  0  0  0  0
    8.2558    0.2763    0.0000 C   0  0  0  0  0  0  0  0  0  0  0  0
    9.5433    0.9823    0.0000 C   0  0  0  0  0  0  0  0  0  0  0  0
   10.3697    0.9980    0.0000 C   0  0  0  0  0  0  0  0  0  0  0  0
   10.7674    1.7199    0.0000 C   0  0  0  0  0  0  0  0  0  0  0  0
   10.3402    2.4268    0.0000 N   0  0  0  0  0  0  0  0  0  0  0  0
    9.5111    2.4071    0.0000 C   0  0  0  0  0  0  0  0  0  0  0  0
    9.1172    1.6847    0.0000 C   0  0  0  0  0  0  0  0  0  0  0  0
  1  2  1  0
  6  7  2  0
  2  3  1  0
  7  8  1  0
  3  4  1  0
  8  9  2  0
  4  5  2  0
  9 10  1  0
  5  1  1  0
 10 11  2  0
 11  6  1  0
  4  6  1  0
M  END

> <chembl_id>
CHEMBL241188

> <chembl_pref_name>
None

$$$$

     RDKit          2D

  9  9  0  0  0  0  0  0  0  0999 V2000
    7.9032   -8.1334    0.0000 C   0  0  0  0  0  0  0  0  0  0  0  0
    7.9021   -8.9596    0.0000 C   0  0  0  0  0  0  0  0  0  0  0  0
    8.6158   -9.3718    0.0000 N   0  0  0  0  0  0  0  0  0  0  0  0
    9.3311   -8.9591    0.0000 C   0  0  0  0  0  0  0  0  0  0  0  0
    9.3283   -8.1299    0.0000 C   0  0  0  0  0  0  0  0  0  0  0  0
    8.6140   -7.7213    0.0000 N   0  0  0  0  0  0  0  0  0  0  0  0
   10.0402   -7.7153    0.0000 C   0  0  0  0  0  0  0  0  0  0  0  0
   10.7551   -8.1245    0.0000 N   0  0  0  0  0  0  0  0  0  0  0  0
   10.0371   -6.8915    0.0000 O   0  0  0  0  0  0  0  0  0  0  0  0
  4  5  1  0
  2  3  1  0
  5  6  2  0
  6  1  1  0
  1  2  2  0
  5  7  1  0
  3  4  2  0
  7  8  1  0
  7  9  2  0
M  ISO  1   7  11
M  END

> <chembl_id>
CHEMBL1091434

> <chembl_pref_name>
None

$$$$

     RDKit          2D

 11 11  0  0  0  0  0  0  0  0999 V2000
    5.7167   -4.6417    0.0000 N   0  0  0  0  0  0  0  0  0  0  0  0
    4.2917   -4.6417    0.0000 C   0  0  0  0  0  0  0  0  0  0  0  0
    3.5750   -4.2250    0.0000 C   0  0  0  0  0  0  0  0  0  0  0  0
    5.0042   -4.2292    0.0000 C   0  0  0  0  0  0  0  0  0  0  0  0
    6.4292   -4.2292    0.0000 C   0  0  0  0  0  0  0  0  0  0  0  0
    3.5792   -3.4000    0.0000 C   0  0  0  0  0  0  0  0  0  0  0  0
    2.8625   -4.6417    0.0000 C   0  0  0  0  0  0  0  0  0  0  0  0
    5.0042   -3.4042    0.0000 C   0  0  0  0  0  0  0  0  0  0  0  0
    2.8625   -2.9875    0.0000 C   0  0  0  0  0  0  0  0  0  0  0  0
    2.1500   -4.2292    0.0000 C   0  0  0  0  0  0  0  0  0  0  0  0
    2.1500   -3.4000    0.0000 C   0  0  0  0  0  0  0  0  0  0  0  0
  2  4  1  0
  3  2  1  0
  4  1  1  0
  5  1  1  0
  6  3  1  0
  7  3  2  0
  8  4  1  0
  9  6  2  0
 10  7  1  0
 11 10  2  0
  9 11  1  0
M  END

> <chembl_id>
CHEMBL508

> <chembl_pref_name>
None

$$$$

     RDKit          2D

 10 10  0  0  0  0  0  0  0  0999 V2000
    3.4627   -1.9439    0.0000 O   0  0  0  0  0  0  0  0  0  0  0  0
    2.7957   -2.4261    0.0000 C   0  0  0  0  0  0  0  0  0  0  0  0
    3.0500   -3.2069    0.0000 C   0  0  0  0  0  0  0  0  0  0  0  0
    3.8713   -3.2069    0.0000 C   0  0  0  0  0  0  0  0  0  0  0  0
    4.1257   -2.4261    0.0000 C   0  0  0  0  0  0  0  0  0  0  0  0
    2.5699   -3.8682    0.0000 C   0  0  0  0  0  0  0  0  0  0  0  0
    4.3514   -3.8682    0.0000 C   0  0  0  0  0  0  0  0  0  0  0  0
    4.0187   -4.6146    0.0000 C   0  0  0  0  0  0  0  0  0  0  0  0
    4.4988   -5.2759    0.0000 C   0  0  0  0  0  0  0  0  0  0  0  0
    4.1661   -6.0223    0.0000 O   0  0  0  0  0  0  0  0  0  0  0  0
  2  3  2  0
  1  2  1  0
  3  4  1  0
  4  5  2  0
  5  1  1  0
  3  6  1  0
  4  7  1  0
  7  8  1  0
  8  9  1  0
  9 10  1  0
M  END

> <chembl_id>
CHEMBL2228603

> <chembl_pref_name>
None

$$$$

     RDKit          2D

 10 10  0  0  0  0  0  0  0  0999 V2000
    4.9292   -6.0292    0.0000 N   0  0  0  0  0  0  0  0  0  0  0  0
    4.9292   -4.3792    0.0000 N   0  0  0  0  0  0  0  0  0  0  0  0
    5.6417   -4.7917    0.0000 C   0  0  0  0  0  0  0  0  0  0  0  0
    5.6417   -5.6167    0.0000 C   0  0  0  0  0  0  0  0  0  0  0  0
    4.2167   -4.7917    0.0000 C   0  0  0  0  0  0  0  0  0  0  0  0
    4.2167   -5.6167    0.0000 C   0  0  0  0  0  0  0  0  0  0  0  0
    6.3542   -6.0292    0.0000 C   0  0  0  0  0  0  0  0  0  0  0  0
    6.3542   -4.3792    0.0000 C   0  0  0  0  0  0  0  0  0  0  0  0
    7.0667   -5.6167    0.0000 C   0  0  0  0  0  0  0  0  0  0  0  0
    7.0667   -4.7917    0.0000 C   0  0  0  0  0  0  0  0  0  0  0  0
  2  5  1  0
  3  4  1  0
  4  1  2  0
  5  6  2  0
  6  1  1  0
  7  4  1  0
  8  3  1  0
  9  7  1  0
 10  8  1  0
  3  2  2  0
M  END

> <chembl_id>
CHEMBL327303

> <chembl_pref_name>
None

$$$$

     RDKit          2D

 10 10  0  0  0  0  0  0  0  0999 V2000
   -0.8625    2.7458    0.0000 O   0  0  0  0  0  0  0  0  0  0  0  0
   -0.8583    1.9208    0.0000 C   0  0  0  0  0  0  0  0  0  0  0  0
   -1.5708    0.6750    0.0000 C   0  0  0  0  0  0  0  0  0  0  0  0
   -1.5708    1.5083    0.0000 C   0  0  0  0  0  0  0  0  0  0  0  0
   -2.2875    0.2625    0.0000 C   0  0  0  0  0  0  0  0  0  0  0  0
   -2.2875   -0.5625    0.0000 O   0  0  0  0  0  0  0  0  0  0  0  0
   -3.0000    1.5000    0.0000 C   0  0  0  0  0  0  0  0  0  0  0  0
   -2.2875    1.9208    0.0000 C   0  0  0  0  0  0  0  0  0  0  0  0
   -3.0000    0.6750    0.0000 C   0  0  0  0  0  0  0  0  0  0  0  0
   -3.0000   -0.9750    0.0000 C   0  0  0  0  0  0  0  0  0  0  0  0
  2  1  2  0
  3  4  1  0
  4  2  1  0
  5  3  2  0
  6  5  1  0
  7  8  1  0
  8  4  2  0
  9  7  2  0
 10  6  1  0
  5  9  1  0
M  END

> <chembl_id>
CHEMBL22585

> <chembl_pref_name>
None

$$$$

     RDKit          2D

  8  8  0  0  0  0  0  0  0  0999 V2000
    2.2125   -2.4750    0.0000 N   0  0  0  0  0  0  0  0  0  0  0  0
    1.6417   -2.6542    0.0000 C   0  0  0  0  0  0  0  0  0  0  0  0
    1.4542   -3.2292    0.0000 N   0  0  0  0  0  0  0  0  0  0  0  0
    1.1542   -2.3042    0.0000 N   0  0  0  0  0  0  0  0  0  0  0  0
    2.6542   -2.8750    0.0000 O   0  0  0  0  0  0  0  0  0  0  0  0
    2.3375   -1.8875    0.0000 O   0  0  0  0  0  0  0  0  0  0  0  0
    0.8500   -3.2292    0.0000 C   0  0  0  0  0  0  0  0  0  0  0  0
    0.6667   -2.6542    0.0000 C   0  0  0  0  0  0  0  0  0  0  0  0
  2  1  1  0
  3  2  2  0
  4  2  1  0
  5  1  1  0
  6  1  2  0
  7  3  1  0
  8  4  1  0
  7  8  2  0
M  CHG  2   1   1   5  -1
M  END

> <chembl_id>
CHEMBL433637

> <chembl_pref_name>
AZOMYCIN

$$$$

     RDKit          2D

 11 11  0  0  0  0  0  0  0  0999 V2000
    2.6611   -3.1869    0.0000 O   0  0  0  0  0  0  0  0  0  0  0  0
    1.9466   -1.9494    0.0000 N   0  0  0  0  0  0  0  0  0  0  0  0
    1.9466   -1.1244    0.0000 C   0  0  0  0  0  0  0  0  0  0  0  0
    1.2322   -0.7119    0.0000 C   0  0  0  0  0  0  0  0  0  0  0  0
    2.6611   -0.7119    0.0000 C   0  0  0  0  0  0  0  0  0  0  0  0
    1.9466    0.5256    0.0000 C   0  0  0  0  0  0  0  0  0  0  0  0
    1.2322    0.1131    0.0000 C   0  0  0  0  0  0  0  0  0  0  0  0
    2.6611    0.1131    0.0000 C   0  0  0  0  0  0  0  0  0  0  0  0
    2.6611   -2.3619    0.0000 C   0  0  0  0  0  0  0  0  0  0  0  0
    1.9466    1.3506    0.0000 C   0  0  0  0  0  0  0  0  0  0  0  0
    3.3756   -1.9494    0.0000 C   0  0  0  0  0  0  0  0  0  0  0  0
  1  9  2  0
  2  3  1  0
  2  9  1  0
  3  4  2  0
  3  5  1  0
  4  7  1  0
  5  8  2  0
  6  7  2  0
  6  8  1  0
  6 10  1  0
  9 11  1  0
M  END

> <chembl_id>
CHEMBL1604472

> <chembl_pref_name>
None

$$$$

     RDKit          2D

 10 10  0  0  0  0  0  0  0  0999 V2000
    1.7993   -7.6280    0.0000 N   0  0  0  0  0  0  0  0  0  0  0  0
    1.7306   -8.4410    0.0000 C   0  0  0  0  0  0  0  0  0  0  0  0
    2.4826   -8.7577    0.0000 C   0  0  0  0  0  0  0  0  0  0  0  0
    3.0161   -8.1403    0.0000 N   0  0  0  0  0  0  0  0  0  0  0  0
    2.5938   -7.4422    0.0000 C   0  0  0  0  0  0  0  0  0  0  0  0
    3.8304   -8.2091    0.0000 C   0  0  0  0  0  0  0  0  0  0  0  0
    2.9109   -6.6890    0.0000 C   0  0  0  0  0  0  0  0  0  0  0  0
    2.4171   -6.0379    0.0000 N   0  0  0  0  0  0  0  0  0  0  0  0
    2.7342   -5.2847    0.0000 O   0  0  0  0  0  0  0  0  0  0  0  0
    4.2972   -7.5383    0.0000 C   0  0  0  0  0  0  0  0  0  0  0  0
  1  2  1  0
  2  3  2  0
  3  4  1  0
  4  5  1  0
  5  1  2  0
  4  6  1  0
  5  7  1  0
  7  8  2  0
  8  9  1  0
  6 10  1  0
M  END

> <chembl_id>
CHEMBL3126016

> <chembl_pref_name>
None

$$$$

     RDKit          2D

 11 11  0  0  0  0  0  0  0  0999 V2000
   -1.3117    0.2334    0.0000 O   0  0  0  0  0  0  0  0  0  0  0  0
    0.1173    0.2334    0.0000 N   0  0  0  0  0  0  0  0  0  0  0  0
    0.8318   -0.1791    0.0000 C   0  0  0  0  0  0  0  0  0  0  0  0
    1.5462    0.2334    0.0000 C   0  0  0  0  0  0  0  0  0  0  0  0
    0.8318   -1.0041    0.0000 C   0  0  0  0  0  0  0  0  0  0  0  0
    2.2607   -0.1791    0.0000 C   0  0  0  0  0  0  0  0  0  0  0  0
   -0.5972   -0.1791    0.0000 C   0  0  0  0  0  0  0  0  0  0  0  0
    1.5462   -1.4166    0.0000 C   0  0  0  0  0  0  0  0  0  0  0  0
    2.2607   -1.0041    0.0000 C   0  0  0  0  0  0  0  0  0  0  0  0
    1.5462    1.0584    0.0000 C   0  0  0  0  0  0  0  0  0  0  0  0
   -0.5972   -1.0041    0.0000 C   0  0  0  0  0  0  0  0  0  0  0  0
  1  7  2  0
  2  3  1  0
  2  7  1  0
  3  4  1  0
  3  5  2  0
  4  6  2  0
  4 10  1  0
  5  8  1  0
  6  9  1  0
  7 11  1  0
  8  9  2  0
M  END

> <chembl_id>
CHEMBL1568309

> <chembl_pref_name>
None

$$$$

     RDKit          2D

 11 11  0  0  0  0  0  0  0  0999 V2000
    2.9538   -0.1125    0.0000 N   0  0  0  0  0  0  0  0  0  0  0  0
    5.8116   -0.1125    0.0000 C   0  0  0  0  0  0  0  0  0  0  0  0
    5.8116    0.7125    0.0000 C   0  0  0  0  0  0  0  0  0  0  0  0
    6.5261   -0.5250    0.0000 C   0  0  0  0  0  0  0  0  0  0  0  0
    5.0972   -0.5250    0.0000 C   0  0  0  0  0  0  0  0  0  0  0  0
    6.5261    1.1250    0.0000 C   0  0  0  0  0  0  0  0  0  0  0  0
    7.2406   -0.1125    0.0000 C   0  0  0  0  0  0  0  0  0  0  0  0
    7.2406    0.7125    0.0000 C   0  0  0  0  0  0  0  0  0  0  0  0
    4.3827   -0.1125    0.0000 C   0  0  0  0  0  0  0  0  0  0  0  0
    3.6682   -0.5250    0.0000 C   0  0  0  0  0  0  0  0  0  0  0  0
    2.2393   -0.5250    0.0000 C   0  0  0  0  0  0  0  0  0  0  0  0
  1 10  1  0
  1 11  1  0
  2  3  2  0
  2  4  1  0
  2  5  1  0
  3  6  1  0
  4  7  2  0
  5  9  1  0
  6  8  2  0
  7  8  1  0
  9 10  1  0
M  END

> <chembl_id>
CHEMBL301755

> <chembl_pref_name>
None

$$$$

     RDKit          2D

 11 11  0  0  0  0  0  0  0  0999 V2000
   -4.5417  -26.0166    0.0000 N   0  0  0  0  0  0  0  0  0  0  0  0
   -3.8726  -25.5347    0.0000 C   0  0  0  0  0  0  0  0  0  0  0  0
   -4.1292  -24.7459    0.0000 C   0  0  0  0  0  0  0  0  0  0  0  0
   -4.9542  -24.7459    0.0000 C   0  0  0  0  0  0  0  0  0  0  0  0
   -5.2110  -25.5342    0.0000 C   0  0  0  0  0  0  0  0  0  0  0  0
   -3.1581  -25.9471    0.0000 C   0  0  0  0  0  0  0  0  0  0  0  0
   -2.4437  -25.5347    0.0000 N   0  0  0  0  0  0  0  0  0  0  0  0
   -1.7604  -25.9969    0.0000 C   0  0  0  0  0  0  0  0  0  0  0  0
   -1.0184  -25.6361    0.0000 C   0  0  0  0  0  0  0  0  0  0  0  0
   -0.2799  -25.2701    0.0000 C   0  0  0  0  0  0  0  0  0  0  0  0
   -2.4144  -24.7102    0.0000 C   0  0  0  0  0  0  0  0  0  0  0  0
  2  6  1  0
  4  5  2  0
  6  7  1  0
  2  3  2  0
  7  8  1  0
  1  2  1  0
  8  9  1  0
  3  4  1  0
  9 10  3  0
  5  1  1  0
  7 11  1  0
M  END

> <chembl_id>
CHEMBL220116

> <chembl_pref_name>
None

$$$$

     RDKit          2D

 11 12  0  0  0  0  0  0  0  0999 V2000
   11.8549   -6.7533    0.0000 C   0  0  0  0  0  0  0  0  0  0  0  0
   11.2715   -6.1699    0.0000 C   0  0  0  0  0  0  0  0  0  0  0  0
   11.4850   -5.3730    0.0000 C   0  0  0  0  0  0  0  0  0  0  0  0
   12.2819   -5.1595    0.0000 C   0  0  0  0  0  0  0  0  0  0  0  0
   12.8653   -5.7429    0.0000 C   0  0  0  0  0  0  0  0  0  0  0  0
   12.6518   -6.5397    0.0000 N   0  0  0  0  0  0  0  0  0  0  0  0
    9.8335   -5.8642    0.0000 N   0  0  0  0  0  0  0  0  0  0  0  0
   10.4746   -6.3834    0.0000 C   0  0  0  0  0  0  0  0  0  0  0  0
   10.1790   -7.1536    0.0000 C   0  0  0  0  0  0  0  0  0  0  0  0
    9.3551   -7.1105    0.0000 C   0  0  0  0  0  0  0  0  0  0  0  0
    9.1416   -6.3136    0.0000 C   0  0  0  0  0  0  0  0  0  0  0  0
  1  2  1  0
  2  3  2  0
  3  4  1  0
  4  5  2  0
  5  6  1  0
  1  6  2  0
  7  8  1  0
  8  9  2  0
  9 10  1  0
 10 11  1  0
  7 11  1  0
  2  8  1  0
M  END

> <chembl_id>
CHEMBL2286829

> <chembl_pref_name>
DIHYDRONICOTYRINE

$$$$

     RDKit          2D

 10 10  0  0  0  0  0  0  0  0999 V2000
    4.1782    2.6079    0.0000 C   0  0  0  0  0  0  0  0  0  0  0  0
    4.1769    1.7803    0.0000 C   0  0  0  0  0  0  0  0  0  0  0  0
    4.8899    1.3673    0.0000 C   0  0  0  0  0  0  0  0  0  0  0  0
    5.6092    1.7808    0.0000 C   0  0  0  0  0  0  0  0  0  0  0  0
    5.6060    2.6118    0.0000 C   0  0  0  0  0  0  0  0  0  0  0  0
    4.8879    3.0206    0.0000 C   0  0  0  0  0  0  0  0  0  0  0  0
    6.3184    3.0278    0.0000 C   0  0  0  0  0  0  0  0  0  0  0  0
    7.0349    2.6189    0.0000 C   0  0  0  0  0  0  0  0  0  0  0  0
    7.7472    3.0350    0.0000 N   0  0  0  0  0  0  0  0  0  0  0  0
    6.3240    1.3690    0.0000 F   0  0  0  0  0  0  0  0  0  0  0  0
  2  3  1  0
  5  6  2  0
  6  1  1  0
  1  2  2  0
  5  7  1  0
  3  4  2  0
  7  8  1  0
  8  9  1  0
  4  5  1  0
  4 10  1  0
M  END

> <chembl_id>
CHEMBL379916

> <chembl_pref_name>
None

$$$$

     RDKit          2D

 11 12  0  0  0  0  0  0  0  0999 V2000
    9.9500   -0.6292    0.0000 C   0  0  0  0  0  0  0  0  0  0  0  0
   11.3792   -0.6375    0.0000 N   0  0  0  0  0  0  0  0  0  0  0  0
    9.9542    0.1958    0.0000 C   0  0  0  0  0  0  0  0  0  0  0  0
    9.2375   -1.0500    0.0000 C   0  0  0  0  0  0  0  0  0  0  0  0
    9.2375    0.6083    0.0000 C   0  0  0  0  0  0  0  0  0  0  0  0
    8.5250   -0.6375    0.0000 C   0  0  0  0  0  0  0  0  0  0  0  0
    8.5250    0.1875    0.0000 C   0  0  0  0  0  0  0  0  0  0  0  0
   10.6667   -1.0500    0.0000 C   0  0  0  0  0  0  0  0  0  0  0  0
   11.3792    0.1958    0.0000 C   0  0  0  0  0  0  0  0  0  0  0  0
   10.6667    0.6083    0.0000 C   0  0  0  0  0  0  0  0  0  0  0  0
    7.8042   -1.0500    0.0000 C   0  0  0  0  0  0  0  0  0  0  0  0
  2  8  1  0
  3  1  1  0
  4  1  2  0
  5  3  2  0
  6  4  1  0
  7  6  2  0
  8  1  1  0
  9  2  1  0
 10  3  1  0
 11  6  1  0
 10  9  1  0
  5  7  1  0
M  END

> <chembl_id>
CHEMBL26711

> <chembl_pref_name>
None

$$$$

     RDKit          2D

  9  9  0  0  0  0  0  0  0  0999 V2000
    4.3792   -8.3542    0.0000 C   0  0  0  0  0  0  0  0  0  0  0  0
    3.6625   -7.9417    0.0000 C   0  0  0  0  0  0  0  0  0  0  0  0
    2.9500   -8.3625    0.0000 C   0  0  0  0  0  0  0  0  0  0  0  0
    4.3792   -9.1875    0.0000 C   0  0  0  0  0  0  0  0  0  0  0  0
    3.6625   -9.6000    0.0000 N   0  0  0  0  0  0  0  0  0  0  0  0
    2.9500   -9.1875    0.0000 C   0  0  0  0  0  0  0  0  0  0  0  0
    5.0917   -9.6000    0.0000 O   0  0  0  0  0  0  0  0  0  0  0  0
    3.6542   -7.1167    0.0000 N   0  0  0  0  0  0  0  0  0  0  0  0
    2.2375   -7.9500    0.0000 F   0  0  0  0  0  0  0  0  0  0  0  0
  2  1  2  0
  3  2  1  0
  4  1  1  0
  5  4  2  0
  6  5  1  0
  7  4  1  0
  8  2  1  0
  9  3  1  0
  6  3  2  0
M  END

> <chembl_id>
CHEMBL116923

> <chembl_pref_name>
None

$$$$

     RDKit          2D

 11 12  0  0  0  0  0  0  0  0999 V2000
   -0.5125   -0.8417    0.0000 N   0  0  0  0  0  0  0  0  0  0  0  0
    0.1000   -0.2917    0.0000 C   0  0  0  0  0  0  0  0  0  0  0  0
    0.9042   -0.4667    0.0000 C   0  0  0  0  0  0  0  0  0  0  0  0
   -1.2250   -0.4292    0.0000 C   0  0  0  0  0  0  0  0  0  0  0  0
    1.1542   -1.2542    0.0000 C   0  0  0  0  0  0  0  0  0  0  0  0
    1.4542    0.1458    0.0000 C   0  0  0  0  0  0  0  0  0  0  0  0
   -0.2333    0.4583    0.0000 C   0  0  0  0  0  0  0  0  0  0  0  0
   -1.0500    0.3708    0.0000 C   0  0  0  0  0  0  0  0  0  0  0  0
    2.2542   -0.0250    0.0000 C   0  0  0  0  0  0  0  0  0  0  0  0
    1.9625   -1.4250    0.0000 C   0  0  0  0  0  0  0  0  0  0  0  0
    2.5167   -0.8125    0.0000 C   0  0  0  0  0  0  0  0  0  0  0  0
  2  1  1  0
  3  2  1  0
  4  1  1  0
  5  3  2  0
  6  3  1  0
  7  2  1  0
  8  4  1  0
  9  6  2  0
 10  5  1  0
 11  9  1  0
  8  7  1  0
 11 10  2  0
M  END

> <chembl_id>
CHEMBL369366

> <chembl_pref_name>
None

$$$$

     RDKit          2D

 11 12  0  0  0  0  0  0  0  0999 V2000
    4.9819  -12.9423    0.0000 C   0  0  0  0  0  0  0  0  0  0  0  0
    4.9807  -13.7711    0.0000 C   0  0  0  0  0  0  0  0  0  0  0  0
    5.6967  -14.1846    0.0000 N   0  0  0  0  0  0  0  0  0  0  0  0
    6.4144  -13.7706    0.0000 C   0  0  0  0  0  0  0  0  0  0  0  0
    5.6949  -12.5288    0.0000 C   0  0  0  0  0  0  0  0  0  0  0  0
    6.4106  -12.9392    0.0000 C   0  0  0  0  0  0  0  0  0  0  0  0
    7.1198  -12.5268    0.0000 C   0  0  0  0  0  0  0  0  0  0  0  0
    7.1196  -11.7025    0.0000 N   0  0  0  0  0  0  0  0  0  0  0  0
    6.4039  -11.2922    0.0000 C   0  0  0  0  0  0  0  0  0  0  0  0
    5.6885  -11.7062    0.0000 C   0  0  0  0  0  0  0  0  0  0  0  0
    7.8350  -12.9381    0.0000 O   0  0  0  0  0  0  0  0  0  0  0  0
  2  3  1  0
  1  2  2  0
  3  4  2  0
  4  6  1  0
  5  1  1  0
  5 10  1  0
  6  7  1  0
  7  8  1  0
  8  9  1  0
  9 10  1  0
  5  6  2  0
  7 11  2  0
M  END

> <chembl_id>
CHEMBL2064706

> <chembl_pref_name>
None

$$$$

     RDKit          2D

 10 10  0  0  0  0  0  0  0  0999 V2000
    3.2632  -28.3210    0.0000 C   0  0  0  0  0  0  0  0  0  0  0  0
    3.2621  -29.1405    0.0000 C   0  0  0  0  0  0  0  0  0  0  0  0
    3.9701  -29.5495    0.0000 C   0  0  0  0  0  0  0  0  0  0  0  0
    3.9683  -27.9121    0.0000 C   0  0  0  0  0  0  0  0  0  0  0  0
    4.6770  -28.3174    0.0000 C   0  0  0  0  0  0  0  0  0  0  0  0
    4.6772  -29.1406    0.0000 C   0  0  0  0  0  0  0  0  0  0  0  0
    5.3803  -27.9054    0.0000 C   0  0  0  0  0  0  0  0  0  0  0  0
    6.0871  -27.4952    0.0000 N   0  0  0  0  0  0  0  0  0  0  0  0
    2.5540  -29.5486    0.0000 C   0  0  0  0  0  0  0  0  0  0  0  0
    1.8467  -29.1394    0.0000 C   0  0  0  0  0  0  0  0  0  0  0  0
  1  2  2  0
  2  3  1  0
  3  6  2  0
  5  4  2  0
  4  1  1  0
  5  6  1  0
  7  8  3  0
  5  7  1  0
  2  9  1  0
  9 10  1  0
M  END

> <chembl_id>
CHEMBL3358230

> <chembl_pref_name>
None

$$$$

     RDKit          2D

  9  9  0  0  0  0  0  0  0  0999 V2000
    2.2314   -1.8366    0.0000 C   0  0  0  0  0  0  0  0  0  0  0  0
    2.2303   -2.6561    0.0000 C   0  0  0  0  0  0  0  0  0  0  0  0
    2.9383   -3.0651    0.0000 C   0  0  0  0  0  0  0  0  0  0  0  0
    3.6480   -2.6556    0.0000 N   0  0  0  0  0  0  0  0  0  0  0  0
    3.6451   -1.8330    0.0000 C   0  0  0  0  0  0  0  0  0  0  0  0
    2.9365   -1.4277    0.0000 C   0  0  0  0  0  0  0  0  0  0  0  0
    2.9381   -3.8823    0.0000 S   0  0  0  0  0  0  0  0  0  0  0  0
    4.3563   -3.0631    0.0000 O   0  0  0  0  0  0  0  0  0  0  0  0
    1.5222   -3.0642    0.0000 C   0  0  0  0  0  0  0  0  0  0  0  0
  1  2  2  0
  2  3  1  0
  3  4  1  0
  4  5  1  0
  5  6  2  0
  6  1  1  0
  3  7  2  0
  4  8  1  0
  2  9  1  0
M  END

> <chembl_id>
CHEMBL3326429

> <chembl_pref_name>
None

$$$$

     RDKit          2D

  9  9  0  0  0  0  0  0  0  0999 V2000
    0.9097   -0.8942    0.0000 C   0  0  0  0  0  0  0  0  0  0  0  0
    0.1952   -1.3067    0.0000 C   0  0  0  0  0  0  0  0  0  0  0  0
   -0.5193   -0.8942    0.0000 C   0  0  0  0  0  0  0  0  0  0  0  0
   -0.5193   -0.0692    0.0000 C   0  0  0  0  0  0  0  0  0  0  0  0
    0.9097   -0.0692    0.0000 C   0  0  0  0  0  0  0  0  0  0  0  0
    0.1952    0.3433    0.0000 C   0  0  0  0  0  0  0  0  0  0  0  0
    0.1952    1.1683    0.0000 C   0  0  0  0  0  0  0  0  0  0  0  0
   -0.5193    1.5808    0.0000 C   0  0  0  0  0  0  0  0  0  0  0  0
   -1.2338    0.3433    0.0000 O   0  0  0  0  0  0  0  0  0  0  0  0
  1  2  2  0
  5  1  1  0
  2  3  1  0
  4  3  2  0
  4  6  1  0
  4  9  1  0
  5  6  2  0
  6  7  1  0
  7  8  1  0
M  END

> <chembl_id>
CHEMBL321029

> <chembl_pref_name>
None

$$$$

     RDKit          2D

  9  9  0  0  0  0  0  0  0  0999 V2000
    2.9861   -3.5658    0.0000 N   0  0  0  0  0  0  0  0  0  0  0  0
    3.7009   -3.1539    0.0000 C   0  0  0  0  0  0  0  0  0  0  0  0
    4.4157   -3.5658    0.0000 C   0  0  0  0  0  0  0  0  0  0  0  0
    5.1264   -3.1539    0.0000 C   0  0  0  0  0  0  0  0  0  0  0  0
    5.2152   -2.3329    0.0000 C   0  0  0  0  0  0  0  0  0  0  0  0
    6.0201   -2.1607    0.0000 N   0  0  0  0  0  0  0  0  0  0  0  0
    6.4320   -2.8755    0.0000 C   0  0  0  0  0  0  0  0  0  0  0  0
    5.8797   -3.4869    0.0000 N   0  0  0  0  0  0  0  0  0  0  0  0
    6.0514   -4.2925    0.0000 C   0  0  0  0  0  0  0  0  0  0  0  0
  1  2  1  0
  2  3  1  0
  3  4  1  0
  4  5  2  0
  5  6  1  0
  6  7  2  0
  7  8  1  0
  4  8  1  0
  8  9  1  0
M  END

> <chembl_id>
CHEMBL14722

> <chembl_pref_name>
None

$$$$

     RDKit          2D

 10 11  0  0  0  0  0  0  0  0999 V2000
   11.7307   -1.1615    0.0000 C   0  0  0  0  0  0  0  0  0  0  0  0
   11.7295   -1.9853    0.0000 C   0  0  0  0  0  0  0  0  0  0  0  0
   12.4412   -2.3964    0.0000 C   0  0  0  0  0  0  0  0  0  0  0  0
   12.4395   -0.7506    0.0000 C   0  0  0  0  0  0  0  0  0  0  0  0
   13.1516   -1.1579    0.0000 C   0  0  0  0  0  0  0  0  0  0  0  0
   13.1565   -1.9853    0.0000 C   0  0  0  0  0  0  0  0  0  0  0  0
   13.9450   -2.2364    0.0000 C   0  0  0  0  0  0  0  0  0  0  0  0
   14.4275   -1.5642    0.0000 C   0  0  0  0  0  0  0  0  0  0  0  0
   13.9371   -0.8977    0.0000 N   0  0  0  0  0  0  0  0  0  0  0  0
   15.2459   -1.5640    0.0000 O   0  0  0  0  0  0  0  0  0  0  0  0
  5  6  1  0
  2  3  1  0
  3  6  2  0
  1  2  2  0
  5  4  2  0
  6  7  1  0
  7  8  1  0
  8  9  1  0
  9  5  1  0
  4  1  1  0
  8 10  1  0
M  END

> <chembl_id>
CHEMBL568766

> <chembl_pref_name>
None

$$$$

     RDKit          2D

  9  9  0  0  0  0  0  0  0  0999 V2000
   -2.8675  -17.2299    0.0000 C   0  0  0  0  0  0  0  0  0  0  0  0
   -2.8687  -18.0571    0.0000 N   0  0  0  0  0  0  0  0  0  0  0  0
   -2.1540  -18.4699    0.0000 C   0  0  0  0  0  0  0  0  0  0  0  0
   -1.4378  -18.0566    0.0000 N   0  0  0  0  0  0  0  0  0  0  0  0
   -1.4407  -17.2263    0.0000 C   0  0  0  0  0  0  0  0  0  0  0  0
   -2.1558  -16.8171    0.0000 N   0  0  0  0  0  0  0  0  0  0  0  0
   -2.1542  -19.2947    0.0000 O   0  0  0  0  0  0  0  0  0  0  0  0
   -0.7277  -16.8111    0.0000 O   0  0  0  0  0  0  0  0  0  0  0  0
   -3.5819  -16.8176    0.0000 O   0  0  0  0  0  0  0  0  0  0  0  0
  4  5  1  0
  2  3  1  0
  5  6  2  0
  6  1  1  0
  1  2  2  0
  3  7  1  0
  3  4  2  0
  5  8  1  0
  1  9  1  0
M  END

> <chembl_id>
CHEMBL243087

> <chembl_pref_name>
None

$$$$

     RDKit          2D

  7  7  0  0  0  0  0  0  0  0999 V2000
    8.4873  -21.6974    0.0000 C   0  0  0  0  0  0  0  0  0  0  0  0
    9.2983  -21.5408    0.0000 N   0  0  0  0  0  0  0  0  0  0  0  0
    9.3962  -20.7199    0.0000 C   0  0  0  0  0  0  0  0  0  0  0  0
    8.6462  -20.3763    0.0000 C   0  0  0  0  0  0  0  0  0  0  0  0
    8.0887  -20.9817    0.0000 O   0  0  0  0  0  0  0  0  0  0  0  0
   10.1163  -20.3166    0.0000 C   0  0  0  0  0  0  0  0  0  0  0  0
   10.1270  -19.4953    0.0000 O   0  0  0  0  0  0  0  0  0  0  0  0
  1  2  2  0
  2  3  1  0
  3  4  2  0
  4  5  1  0
  5  1  1  0
  3  6  1  0
  6  7  2  0
M  END

> <chembl_id>
CHEMBL444137

> <chembl_pref_name>
None

$$$$

     RDKit          2D

 11 12  0  0  0  0  0  0  0  0999 V2000
   -1.0939    0.9677    0.0000 O   0  0  0  0  0  0  0  0  0  0  0  0
   -1.0939   -0.6823    0.0000 N   0  0  0  0  0  0  0  0  0  0  0  0
   -0.3795   -0.2698    0.0000 C   0  0  0  0  0  0  0  0  0  0  0  0
   -0.3795    0.5552    0.0000 C   0  0  0  0  0  0  0  0  0  0  0  0
    0.3350   -0.6823    0.0000 C   0  0  0  0  0  0  0  0  0  0  0  0
    0.3350    0.9677    0.0000 C   0  0  0  0  0  0  0  0  0  0  0  0
    1.0495   -0.2698    0.0000 C   0  0  0  0  0  0  0  0  0  0  0  0
    1.0495    0.5552    0.0000 C   0  0  0  0  0  0  0  0  0  0  0  0
   -1.8084   -0.2698    0.0000 C   0  0  0  0  0  0  0  0  0  0  0  0
   -1.8084    0.5552    0.0000 C   0  0  0  0  0  0  0  0  0  0  0  0
    1.7640   -0.6823    0.0000 C   0  0  0  0  0  0  0  0  0  0  0  0
  1  4  1  0
  1 10  1  0
  2  3  1  0
  2  9  1  0
  3  4  1  0
  3  5  2  0
  4  6  2  0
  5  7  1  0
  6  8  1  0
  7  8  2  0
  7 11  1  0
  9 10  1  0
M  END

> <chembl_id>
CHEMBL1532888

> <chembl_pref_name>
None

$$$$

     RDKit          2D

  9  9  0  0  0  0  0  0  0  0999 V2000
    1.8565   -4.0963    0.0000 N   0  0  0  0  0  0  0  0  0  0  0  0
    2.6285   -3.8384    0.0000 C   0  0  0  0  0  0  0  0  0  0  0  0
    2.6207   -3.0239    0.0000 C   0  0  0  0  0  0  0  0  0  0  0  0
    1.8429   -2.7810    0.0000 N   0  0  0  0  0  0  0  0  0  0  0  0
    1.3728   -3.4462    0.0000 C   0  0  0  0  0  0  0  0  0  0  0  0
    3.2998   -4.3117    0.0000 C   0  0  0  0  0  0  0  0  0  0  0  0
    3.9652   -4.7861    0.0000 N   0  0  0  0  0  0  0  0  0  0  0  0
    3.2767   -2.5366    0.0000 N   0  0  0  0  0  0  0  0  0  0  0  0
    1.5809   -2.0069    0.0000 C   0  0  0  0  0  0  0  0  0  0  0  0
  2  3  2  0
  1  2  1  0
  3  4  1  0
  4  5  1  0
  5  1  2  0
  6  7  3  0
  2  6  1  0
  3  8  1  0
  4  9  1  0
M  END

> <chembl_id>
CHEMBL3289704

> <chembl_pref_name>
None

$$$$

     RDKit          2D

 10 10  0  0  0  0  0  0  0  0999 V2000
   -0.3713    1.5342    0.0000 O   0  0  0  0  0  0  0  0  0  0  0  0
    0.3431    0.2967    0.0000 N   0  0  0  0  0  0  0  0  0  0  0  0
   -0.3713   -0.9408    0.0000 N   0  0  0  0  0  0  0  0  0  0  0  0
    1.0576   -0.9408    0.0000 N   0  0  0  0  0  0  0  0  0  0  0  0
    1.7721   -0.5283    0.0000 N   0  0  0  0  0  0  0  0  0  0  0  0
    0.3431   -0.5283    0.0000 C   0  0  0  0  0  0  0  0  0  0  0  0
   -0.3713    0.7092    0.0000 C   0  0  0  0  0  0  0  0  0  0  0  0
   -1.0858   -0.5283    0.0000 C   0  0  0  0  0  0  0  0  0  0  0  0
   -1.0858    0.2967    0.0000 C   0  0  0  0  0  0  0  0  0  0  0  0
   -1.8003   -0.9408    0.0000 C   0  0  0  0  0  0  0  0  0  0  0  0
  1  7  1  0
  2  6  1  0
  2  7  2  0
  3  6  2  0
  3  8  1  0
  4  5  1  0
  4  6  1  0
  7  9  1  0
  8  9  2  0
  8 10  1  0
M  END

> <chembl_id>
CHEMBL1448983

> <chembl_pref_name>
None

$$$$

     RDKit          2D

 11 11  0  0  0  0  0  0  0  0999 V2000
   -2.2705   -0.1170    0.0000 C   0  0  0  0  0  0  0  0  0  0  0  0
   -1.5560   -0.5295    0.0000 C   0  0  0  0  0  0  0  0  0  0  0  0
   -0.8416   -0.1170    0.0000 C   0  0  0  0  0  0  0  0  0  0  0  0
   -0.1271   -0.5295    0.0000 C   0  0  0  0  0  0  0  0  0  0  0  0
    0.5874   -0.1170    0.0000 C   0  0  0  0  0  0  0  0  0  0  0  0
    0.5874    0.7080    0.0000 C   0  0  0  0  0  0  0  0  0  0  0  0
    1.3019    1.1205    0.0000 C   0  0  0  0  0  0  0  0  0  0  0  0
    2.0163    0.7080    0.0000 C   0  0  0  0  0  0  0  0  0  0  0  0
    2.0163   -0.1170    0.0000 C   0  0  0  0  0  0  0  0  0  0  0  0
    1.3019   -0.5295    0.0000 C   0  0  0  0  0  0  0  0  0  0  0  0
   -2.9850   -0.5295    0.0000 N   0  0  0  0  0  0  0  0  0  0  0  0
  1  2  1  0
  1 11  1  0
  2  3  1  0
  3  4  1  0
  5  4  1  0
  5  6  2  0
  5 10  1  0
  6  7  1  0
  7  8  2  0
  8  9  1  0
  9 10  2  0
M  END

> <chembl_id>
CHEMBL79512

> <chembl_pref_name>
4-PHENYL-BUTYLAMINE

$$$$

     RDKit          2D

  9  9  0  0  0  0  0  0  0  0999 V2000
   16.7391   -4.1125    0.0000 N   0  0  0  0  0  0  0  0  0  0  0  0
   17.4549   -3.7000    0.0000 C   0  0  0  0  0  0  0  0  0  0  0  0
   18.1708   -4.1125    0.0000 C   0  0  0  0  0  0  0  0  0  0  0  0
   18.8823   -3.7000    0.0000 C   0  0  0  0  0  0  0  0  0  0  0  0
   18.9714   -2.8777    0.0000 C   0  0  0  0  0  0  0  0  0  0  0  0
   19.7773   -2.7054    0.0000 N   0  0  0  0  0  0  0  0  0  0  0  0
   20.1898   -3.4212    0.0000 C   0  0  0  0  0  0  0  0  0  0  0  0
   19.6367   -4.0333    0.0000 N   0  0  0  0  0  0  0  0  0  0  0  0
   18.3588   -2.3252    0.0000 C   0  0  0  0  0  0  0  0  0  0  0  0
  1  2  1  0
  2  3  1  0
  3  4  1  0
  4  5  2  0
  5  6  1  0
  6  7  2  0
  7  8  1  0
  4  8  1  0
  5  9  1  0
M  END

> <chembl_id>
CHEMBL275443

> <chembl_pref_name>
4-METHYLHISTAMINE

$$$$

     RDKit          2D

 10 10  0  0  0  0  0  0  0  0999 V2000
    2.0625   -0.9042    0.0000 C   0  0  0  0  0  0  0  0  0  0  0  0
    2.7292   -1.3875    0.0000 N   0  0  0  0  0  0  0  0  0  0  0  0
    1.3875   -1.3875    0.0000 N   0  0  0  0  0  0  0  0  0  0  0  0
    2.0625   -0.0792    0.0000 N   0  0  0  0  0  0  0  0  0  0  0  0
    4.1292   -1.6875    0.0000 C   0  0  0  0  0  0  0  0  0  0  0  0
    3.5125   -1.1292    0.0000 C   0  0  0  0  0  0  0  0  0  0  0  0
    1.6417   -2.1792    0.0000 C   0  0  0  0  0  0  0  0  0  0  0  0
    2.4750   -2.1792    0.0000 C   0  0  0  0  0  0  0  0  0  0  0  0
    4.9125   -1.4292    0.0000 O   0  0  0  0  0  0  0  0  0  0  0  0
    3.9542   -2.4917    0.0000 O   0  0  0  0  0  0  0  0  0  0  0  0
  2  1  1  0
  3  1  2  0
  4  1  1  0
  5  6  1  0
  6  2  1  0
  7  3  1  0
  8  2  1  0
  9  5  1  0
 10  5  2  0
  8  7  2  0
M  END

> <chembl_id>
CHEMBL71748

> <chembl_pref_name>
None

$$$$

     RDKit          2D

  9  9  0  0  0  0  0  0  0  0999 V2000
    4.2694   -1.9458    0.0000 C   0  0  0  0  0  0  0  0  0  0  0  0
    4.2682   -2.7732    0.0000 C   0  0  0  0  0  0  0  0  0  0  0  0
    4.9831   -3.1860    0.0000 C   0  0  0  0  0  0  0  0  0  0  0  0
    5.6995   -2.7727    0.0000 C   0  0  0  0  0  0  0  0  0  0  0  0
    5.6966   -1.9422    0.0000 C   0  0  0  0  0  0  0  0  0  0  0  0
    4.9813   -1.5330    0.0000 C   0  0  0  0  0  0  0  0  0  0  0  0
    3.5548   -1.5335    0.0000 C   0  0  0  0  0  0  0  0  0  0  0  0
    3.5534   -3.1851    0.0000 C   0  0  0  0  0  0  0  0  0  0  0  0
    6.4146   -3.1841    0.0000 C   0  0  0  0  0  0  0  0  0  0  0  0
  4  5  1  0
  2  3  1  0
  5  6  2  0
  6  1  1  0
  1  2  2  0
  1  7  1  0
  3  4  2  0
  2  8  1  0
  4  9  1  0
M  END

> <chembl_id>
CHEMBL1797280

> <chembl_pref_name>
None

$$$$

     RDKit          2D

 10 10  0  0  0  0  0  0  0  0999 V2000
   -1.2458    0.0083    0.0000 C   0  0  0  0  0  0  0  0  0  0  0  0
   -0.4208    0.0083    0.0000 C   0  0  0  0  0  0  0  0  0  0  0  0
   -1.6583    0.7208    0.0000 N   0  0  0  0  0  0  0  0  0  0  0  0
    0.0000    0.7208    0.0000 C   0  0  0  0  0  0  0  0  0  0  0  0
    0.0000   -0.7167    0.0000 C   0  0  0  0  0  0  0  0  0  0  0  0
   -1.6583   -0.7167    0.0000 N   0  0  0  0  0  0  0  0  0  0  0  0
    1.2375    0.0083    0.0000 C   0  0  0  0  0  0  0  0  0  0  0  0
    0.8250    0.7208    0.0000 C   0  0  0  0  0  0  0  0  0  0  0  0
    0.8250   -0.7167    0.0000 C   0  0  0  0  0  0  0  0  0  0  0  0
    2.0625    0.0083    0.0000 O   0  0  0  0  0  0  0  0  0  0  0  0
  2  1  1  0
  3  1  2  0
  4  2  1  0
  5  2  2  0
  6  1  1  0
  7  9  2  0
  8  4  2  0
  9  5  1  0
 10  7  1  0
  8  7  1  0
M  END

> <chembl_id>
CHEMBL363685

> <chembl_pref_name>
None

$$$$

     RDKit          2D

  7  7  0  0  0  0  0  0  0  0999 V2000
    6.0729   -0.9104    0.0000 C   0  0  0  0  0  0  0  0  0  0  0  0
    5.2873   -1.1623    0.0000 N   0  0  0  0  0  0  0  0  0  0  0  0
    4.8046   -0.4955    0.0000 C   0  0  0  0  0  0  0  0  0  0  0  0
    5.2873    0.1714    0.0000 N   0  0  0  0  0  0  0  0  0  0  0  0
    6.0729   -0.0847    0.0000 N   0  0  0  0  0  0  0  0  0  0  0  0
    3.9788   -0.4955    0.0000 N   0  0  0  0  0  0  0  0  0  0  0  0
    6.7356   -1.3932    0.0000 N   0  0  0  0  0  0  0  0  0  0  0  0
  1  2  2  0
  2  3  1  0
  3  4  2  0
  4  5  1  0
  1  5  1  0
  3  6  1  0
  1  7  1  0
M  END

> <chembl_id>
CHEMBL56973

> <chembl_pref_name>
GUANAZOLE

$$$$

     RDKit          2D

 10 10  0  0  0  0  0  0  0  0999 V2000
   21.3982   -8.2119    0.0000 N   0  0  0  0  0  0  0  0  0  0  0  0
   22.1069   -7.8003    0.0000 C   0  0  0  0  0  0  0  0  0  0  0  0
   22.8260   -8.2230    0.0000 N   0  0  0  0  0  0  0  0  0  0  0  0
   21.3972   -9.0390    0.0000 C   0  0  0  0  0  0  0  0  0  0  0  0
   20.6812   -7.8028    0.0000 C   0  0  0  0  0  0  0  0  0  0  0  0
   20.6818   -6.9756    0.0000 C   0  0  0  0  0  0  0  0  0  0  0  0
   21.3946   -6.5602    0.0000 C   0  0  0  0  0  0  0  0  0  0  0  0
   22.1060   -6.9720    0.0000 C   0  0  0  0  0  0  0  0  0  0  0  0
   22.8174   -6.5613    0.0000 C   0  0  0  0  0  0  0  0  0  0  0  0
   23.5308   -6.1496    0.0000 N   0  0  0  0  0  0  0  0  0  0  0  0
  1  2  1  0
  2  3  2  0
  1  4  1  0
  1  5  1  0
  5  6  2  0
  6  7  1  0
  7  8  2  0
  8  2  1  0
  9 10  3  0
  8  9  1  0
M  END

> <chembl_id>
CHEMBL3303826

> <chembl_pref_name>
None

$$$$

     RDKit          2D

  9  9  0  0  0  0  0  0  0  0999 V2000
    3.7667   -5.6792    0.0000 C   0  0  0  0  0  0  0  0  0  0  0  0
    2.9417   -5.6417    0.0000 N   0  0  0  0  0  0  0  0  0  0  0  0
    4.2792   -5.0375    0.0000 C   0  0  0  0  0  0  0  0  0  0  0  0
    3.2917   -6.9292    0.0000 N   0  0  0  0  0  0  0  0  0  0  0  0
    2.6417   -6.4125    0.0000 C   0  0  0  0  0  0  0  0  0  0  0  0
    3.9792   -6.4792    0.0000 C   0  0  0  0  0  0  0  0  0  0  0  0
    3.9875   -4.2667    0.0000 C   0  0  0  0  0  0  0  0  0  0  0  0
    5.1000   -5.1667    0.0000 C   0  0  0  0  0  0  0  0  0  0  0  0
    5.5042   -4.4417    0.0000 N   0  0  0  0  0  0  0  0  0  0  0  0
  2  1  1  0
  3  1  1  0
  4  6  1  0
  5  2  2  0
  6  1  2  0
  7  3  2  0
  8  3  1  0
  9  8  1  0
  4  5  1  0
M  END

> <chembl_id>
CHEMBL116538

> <chembl_pref_name>
None

$$$$

     RDKit          2D

  9  9  0  0  0  0  0  0  0  0999 V2000
    2.3959   -0.7881    0.0000 N   0  0  0  0  0  0  0  0  0  0  0  0
    1.6815   -1.2006    0.0000 C   0  0  0  0  0  0  0  0  0  0  0  0
    1.6815   -2.0256    0.0000 C   0  0  0  0  0  0  0  0  0  0  0  0
    0.9670   -0.7881    0.0000 C   0  0  0  0  0  0  0  0  0  0  0  0
    0.9670   -2.4381    0.0000 C   0  0  0  0  0  0  0  0  0  0  0  0
    0.2525   -1.2006    0.0000 C   0  0  0  0  0  0  0  0  0  0  0  0
    0.2525   -2.0256    0.0000 C   0  0  0  0  0  0  0  0  0  0  0  0
    2.3959   -2.4381    0.0000 C   0  0  0  0  0  0  0  0  0  0  0  0
    0.9670    0.0369    0.0000 C   0  0  0  0  0  0  0  0  0  0  0  0
  1  2  1  0
  2  3  2  0
  2  4  1  0
  3  5  1  0
  3  8  1  0
  4  6  2  0
  4  9  1  0
  5  7  2  0
  6  7  1  0
M  END

> <chembl_id>
CHEMBL1340793

> <chembl_pref_name>
None

$$$$

     RDKit          2D

  9  9  0  0  0  0  0  0  0  0999 V2000
    0.5346   -0.7911    0.0000 C   0  0  0  0  0  0  0  0  0  0  0  0
   -0.8944   -0.7911    0.0000 C   0  0  0  0  0  0  0  0  0  0  0  0
   -0.1799    0.4464    0.0000 C   0  0  0  0  0  0  0  0  0  0  0  0
   -0.1799    2.0964    0.0000 N   0  0  0  0  0  0  0  0  0  0  0  0
   -0.1799    1.2714    0.0000 C   0  0  0  0  0  0  0  0  0  0  0  0
   -0.8944    0.0339    0.0000 C   0  0  0  0  0  0  0  0  0  0  0  0
   -0.1799   -1.2036    0.0000 C   0  0  0  0  0  0  0  0  0  0  0  0
    0.5346    0.0339    0.0000 C   0  0  0  0  0  0  0  0  0  0  0  0
    1.2490   -1.2036    0.0000 C   0  0  0  0  0  0  0  0  0  0  0  0
  1  7  2  0
  1  8  1  0
  9  1  1  0
  2  6  2  0
  7  2  1  0
  6  3  1  0
  3  5  1  0
  3  8  2  0
  5  4  3  0
M  END

> <chembl_id>
CHEMBL1229944

> <chembl_pref_name>
None

$$$$

     RDKit          2D

  9  9  0  0  0  0  0  0  0  0999 V2000
   12.6564   -0.7290    0.0000 C   0  0  0  0  0  0  0  0  0  0  0  0
   12.6552   -1.5564    0.0000 C   0  0  0  0  0  0  0  0  0  0  0  0
   13.3702   -1.9693    0.0000 N   0  0  0  0  0  0  0  0  0  0  0  0
   14.0865   -1.5559    0.0000 C   0  0  0  0  0  0  0  0  0  0  0  0
   14.0836   -0.7254    0.0000 C   0  0  0  0  0  0  0  0  0  0  0  0
   13.3684   -0.3164    0.0000 C   0  0  0  0  0  0  0  0  0  0  0  0
   14.8016   -1.9673    0.0000 N   0  0  0  0  0  0  0  0  0  0  0  0
   15.5154   -1.5537    0.0000 O   0  0  0  0  0  0  0  0  0  0  0  0
   14.7966   -0.3103    0.0000 C   0  0  0  0  0  0  0  0  0  0  0  0
  4  5  1  0
  2  3  1  0
  5  6  2  0
  6  1  1  0
  1  2  2  0
  4  7  1  0
  3  4  2  0
  7  8  2  0
  5  9  1  0
M  END

> <chembl_id>
CHEMBL1916781

> <chembl_pref_name>
None

$$$$

     RDKit          2D

 10 10  0  0  0  0  0  0  0  0999 V2000
    6.3950  -11.7433    0.0000 N   0  0  0  0  0  0  0  0  0  0  0  0
    7.1034  -11.3319    0.0000 C   0  0  0  0  0  0  0  0  0  0  0  0
    7.8222  -11.7544    0.0000 N   0  0  0  0  0  0  0  0  0  0  0  0
    6.3941  -12.5701    0.0000 C   0  0  0  0  0  0  0  0  0  0  0  0
    5.6782  -11.3344    0.0000 C   0  0  0  0  0  0  0  0  0  0  0  0
    5.6788  -10.5076    0.0000 C   0  0  0  0  0  0  0  0  0  0  0  0
    6.3914  -10.0924    0.0000 C   0  0  0  0  0  0  0  0  0  0  0  0
    7.1025  -10.5040    0.0000 C   0  0  0  0  0  0  0  0  0  0  0  0
    4.9661  -11.7476    0.0000 F   0  0  0  0  0  0  0  0  0  0  0  0
    8.5384  -11.3484    0.0000 C   0  0  0  0  0  0  0  0  0  0  0  0
  1  2  1  0
  2  3  2  0
  1  4  1  0
  1  5  1  0
  5  6  2  0
  6  7  1  0
  7  8  2  0
  8  2  1  0
  5  9  1  0
  3 10  1  0
M  END

> <chembl_id>
CHEMBL3546277

> <chembl_pref_name>
None

$$$$

     RDKit          2D

 10 10  0  0  0  0  0  0  0  0999 V2000
    1.1947   -4.5374    0.0000 C   0  0  0  0  0  0  0  0  0  0  0  0
    1.1934   -5.3649    0.0000 C   0  0  0  0  0  0  0  0  0  0  0  0
    1.9064   -5.7779    0.0000 C   0  0  0  0  0  0  0  0  0  0  0  0
    2.6256   -5.3645    0.0000 C   0  0  0  0  0  0  0  0  0  0  0  0
    2.6225   -4.5333    0.0000 C   0  0  0  0  0  0  0  0  0  0  0  0
    1.9044   -4.1246    0.0000 C   0  0  0  0  0  0  0  0  0  0  0  0
    1.9004   -3.2996    0.0000 O   0  0  0  0  0  0  0  0  0  0  0  0
    1.9049   -6.6028    0.0000 C   0  0  0  0  0  0  0  0  0  0  0  0
    1.1898   -7.0141    0.0000 C   0  0  0  0  0  0  0  0  0  0  0  0
    2.6187   -7.0165    0.0000 C   0  0  0  0  0  0  0  0  0  0  0  0
  2  3  1  0
  5  6  2  0
  6  1  1  0
  1  2  2  0
  6  7  1  0
  3  4  2  0
  3  8  1  0
  8  9  1  0
  4  5  1  0
  8 10  1  0
M  END

> <chembl_id>
CHEMBL29966

> <chembl_pref_name>
None

$$$$

     RDKit          2D

  9  9  0  0  0  0  0  0  0  0999 V2000
   -2.5973    1.5031    0.0000 C   0  0  0  0  0  0  0  0  0  0  0  0
   -2.5956    2.7031    0.0000 O   0  0  0  0  0  0  0  0  0  0  0  0
    1.2990   -0.7500    0.0000 N   0  0  0  0  0  0  0  0  0  0  0  0
   -1.2990    0.7500    0.0000 C   0  0  0  0  0  0  0  0  0  0  0  0
   -3.6375    0.9049    0.0000 O   0  0  0  0  0  0  0  0  0  0  0  0
    0.0000   -1.5000    0.0000 C   0  0  0  0  0  0  0  0  0  0  0  0
    1.2990    0.7500    0.0000 C   0  0  0  0  0  0  0  0  0  0  0  0
   -1.2990   -0.7500    0.0000 C   0  0  0  0  0  0  0  0  0  0  0  0
    0.0000    1.5000    0.0000 C   0  0  0  0  0  0  0  0  0  0  0  0
  2  1  2  0
  3  7  1  0
  4  1  1  0
  5  1  1  0
  6  8  1  0
  7  9  2  0
  8  4  2  0
  9  4  1  0
  6  3  2  0
M  END

> <chembl_id>
CHEMBL1203

> <chembl_pref_name>
ISONICOTINIC ACID

$$$$

     RDKit          2D

  9  9  0  0  0  0  0  0  0  0999 V2000
    5.4167   -3.3292    0.0000 N   0  0  0  0  0  0  0  0  0  0  0  0
    6.1292   -2.9167    0.0000 C   0  0  0  0  0  0  0  0  0  0  0  0
    4.7042   -2.9167    0.0000 C   0  0  0  0  0  0  0  0  0  0  0  0
    6.1292   -2.0875    0.0000 C   0  0  0  0  0  0  0  0  0  0  0  0
    5.4167   -1.6750    0.0000 C   0  0  0  0  0  0  0  0  0  0  0  0
    3.9875   -3.3292    0.0000 N   0  0  0  0  0  0  0  0  0  0  0  0
    4.7042   -2.0875    0.0000 C   0  0  0  0  0  0  0  0  0  0  0  0
    6.8500   -3.3292    0.0000 C   0  0  0  0  0  0  0  0  0  0  0  0
    6.8417   -1.6667    0.0000 C   0  0  0  0  0  0  0  0  0  0  0  0
  2  1  2  0
  3  1  1  0
  4  2  1  0
  5  7  1  0
  6  3  1  0
  7  3  2  0
  8  2  1  0
  9  4  1  0
  4  5  2  0
M  END

> <chembl_id>
CHEMBL59592

> <chembl_pref_name>
None

$$$$

     RDKit          2D

  8  8  0  0  0  0  0  0  0  0999 V2000
   -0.0000   -1.6456    0.0000 C   0  0  0  0  0  0  0  0  0  0  0  0
   -0.0000   -0.8206    0.0000 C   0  0  0  0  0  0  0  0  0  0  0  0
   -0.7145   -0.4081    0.0000 C   0  0  0  0  0  0  0  0  0  0  0  0
   -0.7145    0.4169    0.0000 C   0  0  0  0  0  0  0  0  0  0  0  0
    0.7145   -0.4081    0.0000 C   0  0  0  0  0  0  0  0  0  0  0  0
    0.7145    0.4169    0.0000 C   0  0  0  0  0  0  0  0  0  0  0  0
    0.0000    0.8294    0.0000 C   0  0  0  0  0  0  0  0  0  0  0  0
    0.0000    1.6544    0.0000 O   0  0  0  0  0  0  0  0  0  0  0  0
  1  2  1  0
  3  2  2  0
  5  2  1  0
  3  4  1  0
  4  7  2  0
  5  6  2  0
  6  7  1  0
  7  8  1  0
M  END

> <chembl_id>
CHEMBL16645

> <chembl_pref_name>
p-CRESOL

$$$$

     RDKit          2D

  7  7  0  0  0  0  0  0  0  0999 V2000
   21.9152  -13.5407    0.0000 C   0  0  0  0  0  0  0  0  0  0  0  0
   21.6993  -12.7434    0.0000 C   0  0  0  0  0  0  0  0  0  0  0  0
   20.8743  -12.7434    0.0000 C   0  0  0  0  0  0  0  0  0  0  0  0
   20.5803  -13.4744    0.0000 C   0  0  0  0  0  0  0  0  0  0  0  0
   21.2236  -13.9924    0.0000 O   0  0  0  0  0  0  0  0  0  0  0  0
   22.2149  -12.1032    0.0000 C   0  0  0  0  0  0  0  0  0  0  0  0
   23.0274  -12.2296    0.0000 O   0  0  0  0  0  0  0  0  0  0  0  0
  1  2  2  0
  2  3  1  0
  3  4  2  0
  4  5  1  0
  5  1  1  0
  2  6  1  0
  6  7  2  0
M  END

> <chembl_id>
CHEMBL2228160

> <chembl_pref_name>
FURAN-3-CARBALDEHYDE

$$$$

     RDKit          2D

  9 10  0  0  0  0  0  0  0  0999 V2000
   -0.9500    0.6674    0.0000 N   0  0  0  0  0  0  0  0  0  0  0  0
   -1.4349    0.0000    0.0000 C   0  0  0  0  0  0  0  0  0  0  0  0
   -0.9500   -0.6674    0.0000 C   0  0  0  0  0  0  0  0  0  0  0  0
   -0.1654   -0.4125    0.0000 C   0  0  0  0  0  0  0  0  0  0  0  0
    0.5491   -0.8250    0.0000 C   0  0  0  0  0  0  0  0  0  0  0  0
    1.2636   -0.4125    0.0000 C   0  0  0  0  0  0  0  0  0  0  0  0
    1.2636    0.4125    0.0000 C   0  0  0  0  0  0  0  0  0  0  0  0
    0.5491    0.8250    0.0000 C   0  0  0  0  0  0  0  0  0  0  0  0
   -0.1654    0.4125    0.0000 C   0  0  0  0  0  0  0  0  0  0  0  0
  2  1  1  0
  9  1  1  0
  2  3  1  0
  3  4  1  0
  5  4  2  0
  4  9  1  0
  5  6  1  0
  6  7  2  0
  7  8  1  0
  8  9  2  0
M  END

> <chembl_id>
CHEMBL388803

> <chembl_pref_name>
INDOLINE

$$$$

     RDKit          2D

 10 10  0  0  0  0  0  0  0  0999 V2000
    4.4260   -4.4687    0.0000 C   0  0  0  0  0  0  0  0  0  0  0  0
    4.4246   -5.2963    0.0000 C   0  0  0  0  0  0  0  0  0  0  0  0
    5.1377   -5.7092    0.0000 C   0  0  0  0  0  0  0  0  0  0  0  0
    5.8569   -5.2958    0.0000 C   0  0  0  0  0  0  0  0  0  0  0  0
    5.8538   -4.4647    0.0000 C   0  0  0  0  0  0  0  0  0  0  0  0
    5.1357   -4.0559    0.0000 C   0  0  0  0  0  0  0  0  0  0  0  0
    5.1317   -3.2309    0.0000 O   0  0  0  0  0  0  0  0  0  0  0  0
    5.1362   -6.5342    0.0000 C   0  0  0  0  0  0  0  0  0  0  0  0
    4.4211   -6.9455    0.0000 C   0  0  0  0  0  0  0  0  0  0  0  0
    4.4197   -7.7705    0.0000 C   0  0  0  0  0  0  0  0  0  0  0  0
  2  3  1  0
  5  6  2  0
  6  1  1  0
  1  2  2  0
  6  7  1  0
  3  4  2  0
  3  8  1  0
  8  9  1  0
  4  5  1  0
  9 10  1  0
M  END

> <chembl_id>
CHEMBL35297

> <chembl_pref_name>
None

$$$$

     RDKit          2D

 10 10  0  0  0  0  0  0  0  0999 V2000
    2.4750   -1.5917    0.0000 C   0  0  0  0  0  0  0  0  0  0  0  0
    3.1917   -1.1667    0.0000 C   0  0  0  0  0  0  0  0  0  0  0  0
    3.9167   -1.5792    0.0000 C   0  0  0  0  0  0  0  0  0  0  0  0
    2.3917   -2.4167    0.0000 O   0  0  0  0  0  0  0  0  0  0  0  0
    1.7125   -1.2542    0.0000 C   0  0  0  0  0  0  0  0  0  0  0  0
    1.5792   -2.5917    0.0000 C   0  0  0  0  0  0  0  0  0  0  0  0
    1.1542   -1.8792    0.0000 C   0  0  0  0  0  0  0  0  0  0  0  0
    4.6292   -1.1667    0.0000 C   0  0  0  0  0  0  0  0  0  0  0  0
    4.6167   -0.3375    0.0000 O   0  0  0  0  0  0  0  0  0  0  0  0
    5.3500   -1.5750    0.0000 C   0  0  0  0  0  0  0  0  0  0  0  0
  2  1  1  0
  3  2  2  0
  4  1  1  0
  5  1  2  0
  6  4  1  0
  7  5  1  0
  8  3  1  0
  9  8  2  0
 10  8  1  0
  7  6  2  0
M  END

> <chembl_id>
CHEMBL105424

> <chembl_pref_name>
None

$$$$

     RDKit          2D

  8  8  0  0  0  0  0  0  0  0999 V2000
   -2.1463  -27.0353    0.0000 C   0  0  0  0  0  0  0  0  0  0  0  0
   -2.5582  -26.3205    0.0000 C   0  0  0  0  0  0  0  0  0  0  0  0
   -2.1463  -25.6058    0.0000 C   0  0  0  0  0  0  0  0  0  0  0  0
   -2.5582  -24.8868    0.0000 O   0  0  0  0  0  0  0  0  0  0  0  0
   -1.3183  -25.6058    0.0000 N   0  0  0  0  0  0  0  0  0  0  0  0
   -0.9064  -26.3205    0.0000 C   0  0  0  0  0  0  0  0  0  0  0  0
   -1.3183  -27.0353    0.0000 N   0  0  0  0  0  0  0  0  0  0  0  0
   -3.3860  -26.3205    0.0000 F   0  0  0  0  0  0  0  0  0  0  0  0
  1  2  2  0
  2  3  1  0
  3  4  2  0
  3  5  1  0
  5  6  1  0
  6  7  2  0
  1  7  1  0
  2  8  1  0
M  END

> <chembl_id>
CHEMBL472692

> <chembl_pref_name>
FLUOXIDINE

$$$$

     RDKit          2D

  9  9  0  0  0  0  0  0  0  0999 V2000
   -0.7777    1.4256    0.0000 O   0  0  0  0  0  0  0  0  0  0  0  0
   -0.0633    1.0131    0.0000 C   0  0  0  0  0  0  0  0  0  0  0  0
   -0.0633    0.1881    0.0000 C   0  0  0  0  0  0  0  0  0  0  0  0
    0.6512   -0.2244    0.0000 C   0  0  0  0  0  0  0  0  0  0  0  0
    0.6512   -1.0494    0.0000 C   0  0  0  0  0  0  0  0  0  0  0  0
   -0.0633   -1.4619    0.0000 C   0  0  0  0  0  0  0  0  0  0  0  0
   -0.7777   -1.0494    0.0000 C   0  0  0  0  0  0  0  0  0  0  0  0
   -0.7777   -0.2244    0.0000 C   0  0  0  0  0  0  0  0  0  0  0  0
    0.6512    1.4256    0.0000 C   0  0  0  0  0  0  0  0  0  0  0  0
  2  1  1  6
  2  3  1  0
  2  9  1  0
  3  4  1  0
  3  8  2  0
  4  5  2  0
  5  6  1  0
  6  7  2  0
  7  8  1  0
M  END

> <chembl_id>
CHEMBL151062

> <chembl_pref_name>
None

$$$$

     RDKit          2D

  8  8  0  0  0  0  0  0  0  0999 V2000
   -3.0764    1.2035    0.0000 O   0  0  0  0  0  0  0  0  0  0  0  0
   -2.3619   -0.0340    0.0000 N   0  0  0  0  0  0  0  0  0  0  0  0
   -0.9330   -0.0340    0.0000 N   0  0  0  0  0  0  0  0  0  0  0  0
   -2.3619    0.7910    0.0000 C   0  0  0  0  0  0  0  0  0  0  0  0
   -1.6475    1.2035    0.0000 C   0  0  0  0  0  0  0  0  0  0  0  0
   -0.9330    0.7910    0.0000 C   0  0  0  0  0  0  0  0  0  0  0  0
   -1.6475   -0.4465    0.0000 C   0  0  0  0  0  0  0  0  0  0  0  0
   -1.6475    2.0285    0.0000 C   0  0  0  0  0  0  0  0  0  0  0  0
  1  4  2  0
  2  4  1  0
  2  7  1  0
  3  6  1  0
  3  7  2  0
  4  5  1  0
  5  6  2  0
  5  8  1  0
M  END

> <chembl_id>
CHEMBL1976822

> <chembl_pref_name>
None

$$$$

     RDKit          2D

 11 12  0  0  1  0  0  0  0  0999 V2000
   -3.3785  -26.1208    0.0000 C   0  0  0  0  0  0  0  0  0  0  0  0
   -3.3797  -26.9446    0.0000 C   0  0  0  0  0  0  0  0  0  0  0  0
   -2.6679  -27.3556    0.0000 C   0  0  0  0  0  0  0  0  0  0  0  0
   -2.6697  -25.7097    0.0000 C   0  0  0  0  0  0  0  0  0  0  0  0
   -1.9575  -26.1172    0.0000 C   0  0  0  0  0  0  0  0  0  0  0  0
   -1.9526  -26.9446    0.0000 C   0  0  0  0  0  0  0  0  0  0  0  0
   -1.1641  -27.1957    0.0000 C   0  0  0  0  0  0  0  0  0  0  0  0
   -0.6816  -26.5234    0.0000 C   0  0  0  0  0  0  0  0  0  0  0  0
   -1.1720  -25.8569    0.0000 C   0  0  0  0  0  0  0  0  0  0  0  0
   -0.9227  -25.0742    0.0000 O   0  0  0  0  0  0  0  0  0  0  0  0
   -4.0901  -25.7102    0.0000 C   0  0  0  0  0  0  0  0  0  0  0  0
  2  3  1  0
  3  6  2  0
  1  2  2  0
  5  4  2  0
  6  7  1  0
  7  8  1  0
  9  8  1  0
  9  5  1  0
  4  1  1  0
  9 10  1  6
  5  6  1  0
  1 11  1  0
M  END

> <chembl_id>
CHEMBL380136

> <chembl_pref_name>
None

$$$$

     RDKit          2D

  8  8  0  0  0  0  0  0  0  0999 V2000
   -1.2455    0.5196    0.0000 N   0  0  0  0  0  0  0  0  0  0  0  0
    0.1834    1.3446    0.0000 O   0  0  0  0  0  0  0  0  0  0  0  0
   -0.5310    0.1071    0.0000 C   0  0  0  0  0  0  0  0  0  0  0  0
    0.1834    0.5196    0.0000 C   0  0  0  0  0  0  0  0  0  0  0  0
    0.8979    0.1071    0.0000 C   0  0  0  0  0  0  0  0  0  0  0  0
    0.8979   -0.7179    0.0000 C   0  0  0  0  0  0  0  0  0  0  0  0
    0.1834   -1.1304    0.0000 C   0  0  0  0  0  0  0  0  0  0  0  0
   -0.5310   -0.7179    0.0000 C   0  0  0  0  0  0  0  0  0  0  0  0
  3  1  1  0
  4  2  1  0
  3  4  2  0
  3  8  1  0
  4  5  1  0
  5  6  2  0
  6  7  1  0
  7  8  2  0
M  END

> <chembl_id>
CHEMBL28319

> <chembl_pref_name>
QUESTIOMYCIN B

$$$$

     RDKit          2D

  9  9  0  0  0  0  0  0  0  0999 V2000
    2.6417   -7.3167    0.0000 N   0  0  0  0  0  0  0  0  0  0  0  0
    1.9292   -6.9042    0.0000 C   0  0  0  0  0  0  0  0  0  0  0  0
    3.3542   -6.9042    0.0000 C   0  0  0  0  0  0  0  0  0  0  0  0
    2.6375   -8.1417    0.0000 C   0  0  0  0  0  0  0  0  0  0  0  0
    2.6417   -5.6667    0.0000 C   0  0  0  0  0  0  0  0  0  0  0  0
    1.9292   -6.0792    0.0000 C   0  0  0  0  0  0  0  0  0  0  0  0
    3.3542   -6.0792    0.0000 C   0  0  0  0  0  0  0  0  0  0  0  0
    3.3542   -4.4292    0.0000 O   0  0  0  0  0  0  0  0  0  0  0  0
    2.6375   -4.8417    0.0000 C   0  0  0  0  0  0  0  0  0  0  0  0
  2  1  1  0
  3  1  2  0
  4  1  1  0
  5  7  2  0
  6  2  2  0
  7  3  1  0
  8  9  1  0
  9  5  1  0
  6  5  1  0
M  CHG  1   1   1
M  END

> <chembl_id>
CHEMBL72416

> <chembl_pref_name>
None

$$$$

     RDKit          2D

  9  9  0  0  0  0  0  0  0  0999 V2000
   -1.2777   -0.1775    0.0000 O   0  0  0  0  0  0  0  0  0  0  0  0
   -0.4931   -0.4325    0.0000 C   0  0  0  0  0  0  0  0  0  0  0  0
    0.1744    0.0525    0.0000 C   0  0  0  0  0  0  0  0  0  0  0  0
    0.1744    0.8775    0.0000 C   0  0  0  0  0  0  0  0  0  0  0  0
   -0.5401    1.2900    0.0000 O   0  0  0  0  0  0  0  0  0  0  0  0
    0.8888    1.2900    0.0000 O   0  0  0  0  0  0  0  0  0  0  0  0
    0.8418   -0.4325    0.0000 C   0  0  0  0  0  0  0  0  0  0  0  0
    0.5869   -1.2171    0.0000 O   0  0  0  0  0  0  0  0  0  0  0  0
   -0.2381   -1.2171    0.0000 N   0  0  0  0  0  0  0  0  0  0  0  0
  2  1  1  0
  3  2  1  0
  2  9  2  0
  3  4  1  0
  3  7  2  0
  4  5  1  0
  4  6  2  0
  7  8  1  0
  9  8  1  0
M  END

> <chembl_id>
CHEMBL1232960

> <chembl_pref_name>
None

$$$$

     RDKit          2D

  8  7  0  0  0  0  0  0  0  0999 V2000
   -2.9066    0.0583    0.0000 Cl  0  0  0  0  0  0  0  0  0  0  0  0
   -2.8460    1.0320    0.0000 N   0  0  0  0  0  0  0  0  0  0  0  0
   -2.0663    0.7664    0.0000 N   0  0  0  0  0  0  0  0  0  0  0  0
   -1.5725    1.4258    0.0000 N   0  0  0  0  0  0  0  0  0  0  0  0
   -2.0473    2.0992    0.0000 N   0  0  0  0  0  0  0  0  0  0  0  0
   -2.8342    1.8556    0.0000 C   0  0  0  0  0  0  0  0  0  0  0  0
   -3.4948    2.3501    0.0000 C   0  0  0  0  0  0  0  0  0  0  0  0
   -4.2532    2.0252    0.0000 N   0  0  0  0  0  0  0  0  0  0  0  0
  4  5  1  0
  5  6  2  0
  6  2  1  0
  2  3  1  0
  6  7  1  0
  7  8  1  0
  3  4  2  0
M  END

> <chembl_id>
CHEMBL1916870

> <chembl_pref_name>
None

$$$$

     RDKit          2D

 10 10  0  0  0  0  0  0  0  0999 V2000
   -3.5764   -2.7499    0.0000 C   0  0  0  0  0  0  0  0  0  0  0  0
   -3.5777   -3.5773    0.0000 C   0  0  0  0  0  0  0  0  0  0  0  0
   -2.8647   -3.9903    0.0000 C   0  0  0  0  0  0  0  0  0  0  0  0
   -2.1454   -3.5769    0.0000 C   0  0  0  0  0  0  0  0  0  0  0  0
   -2.1486   -2.7458    0.0000 C   0  0  0  0  0  0  0  0  0  0  0  0
   -2.8667   -2.3371    0.0000 C   0  0  0  0  0  0  0  0  0  0  0  0
   -1.4362   -2.3298    0.0000 C   0  0  0  0  0  0  0  0  0  0  0  0
   -0.7197   -2.7388    0.0000 C   0  0  0  0  0  0  0  0  0  0  0  0
   -0.0074   -2.3228    0.0000 N   0  0  0  0  0  0  0  0  0  0  0  0
   -4.2926   -3.9888    0.0000 F   0  0  0  0  0  0  0  0  0  0  0  0
  2  3  1  0
  5  6  2  0
  6  1  1  0
  1  2  2  0
  5  7  1  0
  3  4  2  0
  7  8  1  0
  8  9  1  0
  4  5  1  0
  2 10  1  0
M  END

> <chembl_id>
CHEMBL217315

> <chembl_pref_name>
None

$$$$

     RDKit          2D

 11 11  0  0  0  0  0  0  0  0999 V2000
    5.4042   -6.6875    0.0000 C   0  0  0  0  0  0  0  0  0  0  0  0
    6.1250   -6.2750    0.0000 C   0  0  0  0  0  0  0  0  0  0  0  0
    6.1292   -5.4500    0.0000 N   0  0  0  0  0  0  0  0  0  0  0  0
    7.5542   -6.2792    0.0000 O   0  0  0  0  0  0  0  0  0  0  0  0
    6.8375   -6.6917    0.0000 C   0  0  0  0  0  0  0  0  0  0  0  0
    5.4042   -7.5125    0.0000 C   0  0  0  0  0  0  0  0  0  0  0  0
    4.6917   -6.2667    0.0000 C   0  0  0  0  0  0  0  0  0  0  0  0
    4.6917   -7.9167    0.0000 C   0  0  0  0  0  0  0  0  0  0  0  0
    3.9875   -6.6875    0.0000 C   0  0  0  0  0  0  0  0  0  0  0  0
    3.9875   -7.5125    0.0000 C   0  0  0  0  0  0  0  0  0  0  0  0
    5.4124   -5.8593    0.0000 H   0  0  0  0  0  0  0  0  0  0  0  0
  2  1  1  0
  2  3  1  1
  4  5  1  0
  5  2  1  0
  6  1  2  0
  7  1  1  0
  8  6  1  0
  9  7  2  0
 10  9  1  0
 10  8  2  0
  2 11  1  6
M  END

> <chembl_id>
CHEMBL1907936

> <chembl_pref_name>
None

$$$$

     RDKit          2D

 11 11  0  0  0  0  0  0  0  0999 V2000
   15.3409  -12.1272    0.0000 C   0  0  0  0  0  0  0  0  0  0  0  0
   16.1563  -12.1284    0.0000 C   0  0  0  0  0  0  0  0  0  0  0  0
   16.5632  -11.4239    0.0000 C   0  0  0  0  0  0  0  0  0  0  0  0
   16.1558  -10.7178    0.0000 C   0  0  0  0  0  0  0  0  0  0  0  0
   15.3373  -10.7206    0.0000 C   0  0  0  0  0  0  0  0  0  0  0  0
   14.9340  -11.4257    0.0000 C   0  0  0  0  0  0  0  0  0  0  0  0
   17.3804  -11.4241    0.0000 C   0  0  0  0  0  0  0  0  0  0  0  0
   17.7888  -12.1319    0.0000 N   0  0  0  0  0  0  0  0  0  0  0  0
   18.6060  -12.1321    0.0000 C   0  0  0  0  0  0  0  0  0  0  0  0
   19.0144  -12.8399    0.0000 C   0  0  0  0  0  0  0  0  0  0  0  0
   19.0148  -11.4245    0.0000 C   0  0  0  0  0  0  0  0  0  0  0  0
  1  2  2  0
  2  3  1  0
  3  4  2  0
  4  5  1  0
  5  6  2  0
  6  1  1  0
  3  7  1  0
  7  8  1  0
  8  9  1  0
  9 10  1  0
  9 11  1  0
M  END

> <chembl_id>
CHEMBL3229275

> <chembl_pref_name>
None

$$$$

     RDKit          2D

  8  8  0  0  0  0  0  0  0  0999 V2000
    4.9292   -6.0292    0.0000 N   0  0  0  0  0  0  0  0  0  0  0  0
    4.9292   -4.3792    0.0000 N   0  0  0  0  0  0  0  0  0  0  0  0
    5.6417   -5.6167    0.0000 C   0  0  0  0  0  0  0  0  0  0  0  0
    5.6417   -4.7917    0.0000 C   0  0  0  0  0  0  0  0  0  0  0  0
    4.2167   -5.6167    0.0000 C   0  0  0  0  0  0  0  0  0  0  0  0
    4.2167   -4.7917    0.0000 C   0  0  0  0  0  0  0  0  0  0  0  0
    6.3542   -6.0292    0.0000 C   0  0  0  0  0  0  0  0  0  0  0  0
    7.0667   -5.6167    0.0000 C   0  0  0  0  0  0  0  0  0  0  0  0
  2  6  1  0
  3  1  2  0
  4  3  1  0
  5  1  1  0
  6  5  2  0
  7  3  1  0
  8  7  1  0
  4  2  2  0
M  END

> <chembl_id>
CHEMBL97525

> <chembl_pref_name>
None

$$$$

     RDKit          2D

 11 13  0  0  0  0  0  0  0  0999 V2000
    8.6031    1.1414    0.0000 C   0  0  0  0  0  0  0  0  0  0  0  0
    8.6545    1.9340    0.0000 C   0  0  0  0  0  0  0  0  0  0  0  0
    9.0562    2.6475    0.0000 C   0  0  0  0  0  0  0  0  0  0  0  0
    9.1625    1.8629    0.0000 C   0  0  0  0  0  0  0  0  0  0  0  0
    8.5361    3.3483    0.0000 N   0  0  0  0  0  0  0  0  0  0  0  0
   10.0222    2.5665    0.0000 C   0  0  0  0  0  0  0  0  0  0  0  0
   10.0239    1.8394    0.0000 C   0  0  0  0  0  0  0  0  0  0  0  0
   10.7313    1.3305    0.0000 C   0  0  0  0  0  0  0  0  0  0  0  0
   11.4480    1.7424    0.0000 N   0  0  0  0  0  0  0  0  0  0  0  0
   11.4449    2.5704    0.0000 C   0  0  0  0  0  0  0  0  0  0  0  0
   10.7293    2.9778    0.0000 C   0  0  0  0  0  0  0  0  0  0  0  0
  4  5  1  0
  3  5  1  0
  3  6  1  0
  6  7  2  0
  7  4  1  0
  7  8  1  0
  1  2  2  0
  8  9  2  0
  2  3  1  0
  9 10  1  0
  1  4  1  0
 10 11  2  0
 11  6  1  0
M  END

> <chembl_id>
CHEMBL396581

> <chembl_pref_name>
None

$$$$

     RDKit          2D

 11 12  0  0  0  0  0  0  0  0999 V2000
    6.5241   -4.0269    0.0000 C   0  0  0  0  0  0  0  0  0  0  0  0
    6.5229   -4.8538    0.0000 C   0  0  0  0  0  0  0  0  0  0  0  0
    7.2373   -5.2664    0.0000 C   0  0  0  0  0  0  0  0  0  0  0  0
    7.2356   -3.6143    0.0000 C   0  0  0  0  0  0  0  0  0  0  0  0
    7.9506   -4.0233    0.0000 C   0  0  0  0  0  0  0  0  0  0  0  0
    7.9494   -4.8512    0.0000 C   0  0  0  0  0  0  0  0  0  0  0  0
    8.6619   -5.2640    0.0000 C   0  0  0  0  0  0  0  0  0  0  0  0
    9.3802   -4.8533    0.0000 N   0  0  0  0  0  0  0  0  0  0  0  0
    9.3814   -4.0253    0.0000 C   0  0  0  0  0  0  0  0  0  0  0  0
    8.6642   -3.6080    0.0000 C   0  0  0  0  0  0  0  0  0  0  0  0
    8.6596   -6.0886    0.0000 N   0  0  0  0  0  0  0  0  0  0  0  0
  1  2  2  0
  2  3  1  0
  3  6  2  0
  5  4  2  0
  4  1  1  0
  5  6  1  0
  5 10  1  0
  6  7  1  0
  7  8  2  0
  8  9  1  0
  9 10  1  0
  7 11  1  0
M  END

> <chembl_id>
CHEMBL7891

> <chembl_pref_name>
None

$$$$

     RDKit          2D

  8  8  0  0  0  0  0  0  0  0999 V2000
    3.3001   -0.7128    0.0000 Cl  0  0  0  0  0  0  0  0  0  0  0  0
    0.0000   -0.7128    0.0000 N   0  0  0  0  0  0  0  0  0  0  0  0
    2.4750   -0.7128    0.0000 C   0  0  0  0  0  0  0  0  0  0  0  0
    0.8250   -0.7128    0.0000 C   0  0  0  0  0  0  0  0  0  0  0  0
    2.0625    0.0000    0.0000 C   0  0  0  0  0  0  0  0  0  0  0  0
    2.0625   -1.4289    0.0000 C   0  0  0  0  0  0  0  0  0  0  0  0
    1.2375    0.0000    0.0000 C   0  0  0  0  0  0  0  0  0  0  0  0
    1.2375   -1.4289    0.0000 C   0  0  0  0  0  0  0  0  0  0  0  0
  1  3  1  0
  2  4  1  0
  3  5  2  0
  3  6  1  0
  4  7  2  0
  4  8  1  0
  5  7  1  0
  6  8  2  0
M  END

> <chembl_id>
CHEMBL15888

> <chembl_pref_name>
4-CHLOROANILINE

$$$$

     RDKit          2D

  9  9  0  0  0  0  0  0  0  0999 V2000
    1.9750   -2.2792    0.0000 N   0  0  0  0  0  0  0  0  0  0  0  0
    2.1542   -1.7042    0.0000 C   0  0  0  0  0  0  0  0  0  0  0  0
    1.1792   -1.7042    0.0000 N   0  0  0  0  0  0  0  0  0  0  0  0
    1.3667   -2.2792    0.0000 C   0  0  0  0  0  0  0  0  0  0  0  0
    1.6750   -1.3542    0.0000 O   0  0  0  0  0  0  0  0  0  0  0  0
    2.7292   -1.5250    0.0000 C   0  0  0  0  0  0  0  0  0  0  0  0
    2.8542   -0.9417    0.0000 N   0  0  0  0  0  0  0  0  0  0  0  0
    3.4292   -0.7542    0.0000 O   0  0  0  0  0  0  0  0  0  0  0  0
    1.0167   -2.7667    0.0000 C   0  0  0  0  0  0  0  0  0  0  0  0
  2  1  2  0
  3  4  2  0
  4  1  1  0
  5  2  1  0
  6  2  1  0
  7  6  2  0
  8  7  1  0
  9  4  1  0
  5  3  1  0
M  END

> <chembl_id>
CHEMBL278826

> <chembl_pref_name>
None

$$$$

     RDKit          2D

  9  9  0  0  0  0  0  0  0  0999 V2000
    1.2065   -1.2104    0.0000 S   0  0  0  0  0  0  0  0  0  0  0  0
   -0.2225    1.2646    0.0000 O   0  0  0  0  0  0  0  0  0  0  0  0
    0.4920    0.0271    0.0000 N   0  0  0  0  0  0  0  0  0  0  0  0
   -0.2225   -1.2104    0.0000 N   0  0  0  0  0  0  0  0  0  0  0  0
   -0.9369   -0.7979    0.0000 N   0  0  0  0  0  0  0  0  0  0  0  0
    0.4920   -0.7979    0.0000 C   0  0  0  0  0  0  0  0  0  0  0  0
   -0.2225    0.4396    0.0000 C   0  0  0  0  0  0  0  0  0  0  0  0
   -0.9369    0.0271    0.0000 C   0  0  0  0  0  0  0  0  0  0  0  0
    1.9209   -0.7979    0.0000 C   0  0  0  0  0  0  0  0  0  0  0  0
  1  6  1  0
  1  9  1  0
  2  7  1  0
  3  6  1  0
  3  7  2  0
  4  5  1  0
  4  6  2  0
  5  8  2  0
  7  8  1  0
M  END

> <chembl_id>
CHEMBL1405778

> <chembl_pref_name>
None

$$$$

     RDKit          2D

  9  9  0  0  0  0  0  0  0  0999 V2000
    0.5396   -0.1290    0.0000 C   0  0  0  0  0  0  0  0  0  0  0  0
    0.5396    0.6960    0.0000 C   0  0  0  0  0  0  0  0  0  0  0  0
    1.2541   -0.5415    0.0000 C   0  0  0  0  0  0  0  0  0  0  0  0
   -0.1748   -0.5415    0.0000 C   0  0  0  0  0  0  0  0  0  0  0  0
    1.2541   -1.3665    0.0000 C   0  0  0  0  0  0  0  0  0  0  0  0
   -0.1748   -1.3665    0.0000 C   0  0  0  0  0  0  0  0  0  0  0  0
    0.5396   -1.7790    0.0000 C   0  0  0  0  0  0  0  0  0  0  0  0
   -0.1748    1.1085    0.0000 C   0  0  0  0  0  0  0  0  0  0  0  0
    1.2541    1.1085    0.0000 C   0  0  0  0  0  0  0  0  0  0  0  0
  1  2  1  0
  1  3  2  0
  1  4  1  0
  2  8  1  0
  2  9  1  0
  3  5  1  0
  4  6  2  0
  5  7  2  0
  6  7  1  0
M  END

> <chembl_id>
CHEMBL1398949

> <chembl_pref_name>
ISOPROPYLBENZENE

$$$$

     RDKit          2D

 10 10  0  0  0  0  0  0  0  0999 V2000
    1.1417    0.0083    0.0000 C   0  0  0  0  0  0  0  0  0  0  0  0
    0.4292    0.4208    0.0000 C   0  0  0  0  0  0  0  0  0  0  0  0
    1.1417   -0.8167    0.0000 O   0  0  0  0  0  0  0  0  0  0  0  0
   -0.9958    0.4125    0.0000 N   0  0  0  0  0  0  0  0  0  0  0  0
    1.8542    0.4208    0.0000 N   0  0  0  0  0  0  0  0  0  0  0  0
   -0.2750    0.0083    0.0000 C   0  0  0  0  0  0  0  0  0  0  0  0
    2.5667    0.0083    0.0000 N   0  0  0  0  0  0  0  0  0  0  0  0
    0.4375    1.2458    0.0000 C   0  0  0  0  0  0  0  0  0  0  0  0
   -0.9958    1.2458    0.0000 C   0  0  0  0  0  0  0  0  0  0  0  0
   -0.2833    1.6583    0.0000 C   0  0  0  0  0  0  0  0  0  0  0  0
  2  1  1  0
  3  1  2  0
  4  6  2  0
  5  1  1  0
  6  2  1  0
  7  5  1  0
  8  2  2  0
  9 10  2  0
 10  8  1  0
  4  9  1  0
M  END

> <chembl_id>
CHEMBL124495

> <chembl_pref_name>
NICOTINIC ACID HYDRAZIDE

$$$$

     RDKit          2D

  9  9  0  0  0  0  0  0  0  0999 V2000
   -0.4122    1.2276    0.0000 S   0  0  0  0  0  0  0  0  0  0  0  0
    0.2552   -0.0823    0.0000 N   0  0  0  0  0  0  0  0  0  0  0  0
   -0.8247   -0.8669    0.0000 N   0  0  0  0  0  0  0  0  0  0  0  0
   -1.0797   -0.0823    0.0000 N   0  0  0  0  0  0  0  0  0  0  0  0
    0.4852   -1.5343    0.0000 N   0  0  0  0  0  0  0  0  0  0  0  0
    1.0398    0.1727    0.0000 N   0  0  0  0  0  0  0  0  0  0  0  0
    1.3057   -1.4481    0.0000 N   0  0  0  0  0  0  0  0  0  0  0  0
    0.0003   -0.8669    0.0000 C   0  0  0  0  0  0  0  0  0  0  0  0
   -0.4122    0.4026    0.0000 C   0  0  0  0  0  0  0  0  0  0  0  0
  1  9  1  0
  2  6  1  0
  2  8  1  0
  2  9  1  0
  3  4  1  0
  3  8  2  0
  4  9  2  0
  5  7  1  0
  5  8  1  0
M  END

> <chembl_id>
CHEMBL1531579

> <chembl_pref_name>
None

$$$$

     RDKit          2D

  9  9  0  0  0  0  0  0  0  0999 V2000
    1.1519   -4.4293    0.0000 N   0  0  0  0  0  0  0  0  0  0  0  0
    1.1519   -5.2543    0.0000 C   0  0  0  0  0  0  0  0  0  0  0  0
    1.8664   -5.6668    0.0000 C   0  0  0  0  0  0  0  0  0  0  0  0
    1.8664   -6.4918    0.0000 C   0  0  0  0  0  0  0  0  0  0  0  0
    1.1519   -6.9043    0.0000 C   0  0  0  0  0  0  0  0  0  0  0  0
    0.4375   -6.4918    0.0000 C   0  0  0  0  0  0  0  0  0  0  0  0
    0.4375   -5.6668    0.0000 C   0  0  0  0  0  0  0  0  0  0  0  0
   -0.2770   -6.9043    0.0000 N   0  0  0  0  0  0  0  0  0  0  0  0
    2.5809   -5.2543    0.0000 Cl  0  0  0  0  0  0  0  0  0  0  0  0
  1  2  1  0
  2  3  2  0
  3  4  1  0
  4  5  2  0
  5  6  1  0
  6  7  2  0
  2  7  1  0
  6  8  1  0
  3  9  1  0
M  END

> <chembl_id>
CHEMBL564253

> <chembl_pref_name>
None

$$$$

     RDKit          2D

  9 10  0  0  1  0  0  0  0  0999 V2000
   -1.4555   -7.4162    0.0000 C   0  0  0  0  0  0  0  0  0  0  0  0
   -1.8630   -8.1313    0.0000 C   0  0  0  0  0  0  0  0  0  0  0  0
   -1.0384   -8.1275    0.0000 C   0  0  0  0  0  0  0  0  0  0  0  0
   -1.4606   -6.5930    0.0000 N   0  0  0  0  0  0  0  0  0  0  0  0
   -2.4755   -8.6840    0.0000 C   0  0  0  0  0  0  0  0  0  0  0  0
   -3.2881   -8.5171    0.0000 C   0  0  0  0  0  0  0  0  0  0  0  0
   -3.6996   -9.2320    0.0000 S   0  0  0  0  0  0  0  0  0  0  0  0
   -3.1469   -9.8445    0.0000 C   0  0  0  0  0  0  0  0  0  0  0  0
   -2.3937   -9.5079    0.0000 C   0  0  0  0  0  0  0  0  0  0  0  0
  2  5  1  1
  5  6  2  0
  2  1  1  0
  3  2  1  0
  1  3  1  0
  1  4  1  6
  6  7  1  0
  7  8  1  0
  8  9  2  0
  9  5  1  0
M  END

> <chembl_id>
CHEMBL402865

> <chembl_pref_name>
None

$$$$

     RDKit          2D

  9  9  0  0  0  0  0  0  0  0999 V2000
    4.9292   -4.3792    0.0000 N   0  0  0  0  0  0  0  0  0  0  0  0
    4.9292   -6.0292    0.0000 N   0  0  0  0  0  0  0  0  0  0  0  0
    4.2167   -4.7917    0.0000 C   0  0  0  0  0  0  0  0  0  0  0  0
    5.6417   -5.6167    0.0000 C   0  0  0  0  0  0  0  0  0  0  0  0
    4.2167   -5.6167    0.0000 C   0  0  0  0  0  0  0  0  0  0  0  0
    5.6417   -4.7917    0.0000 C   0  0  0  0  0  0  0  0  0  0  0  0
    6.3542   -6.0292    0.0000 C   0  0  0  0  0  0  0  0  0  0  0  0
    3.5042   -4.3792    0.0000 C   0  0  0  0  0  0  0  0  0  0  0  0
    7.0667   -5.6167    0.0000 C   0  0  0  0  0  0  0  0  0  0  0  0
  2  4  2  0
  3  1  1  0
  4  6  1  0
  5  3  2  0
  6  1  2  0
  7  4  1  0
  8  3  1  0
  9  7  1  0
  5  2  1  0
M  END

> <chembl_id>
CHEMBL94558

> <chembl_pref_name>
None

$$$$

     RDKit          2D

  8  8  0  0  0  0  0  0  0  0999 V2000
    9.2880  -25.7821    0.0000 C   0  0  0  0  0  0  0  0  0  0  0  0
    9.2868  -26.6089    0.0000 C   0  0  0  0  0  0  0  0  0  0  0  0
   10.0012  -27.0215    0.0000 C   0  0  0  0  0  0  0  0  0  0  0  0
   10.7171  -26.6085    0.0000 C   0  0  0  0  0  0  0  0  0  0  0  0
   10.7142  -25.7784    0.0000 C   0  0  0  0  0  0  0  0  0  0  0  0
    9.9994  -25.3696    0.0000 C   0  0  0  0  0  0  0  0  0  0  0  0
    9.9969  -24.5452    0.0000 O   0  0  0  0  0  0  0  0  0  0  0  0
   11.4317  -27.0195    0.0000 F   0  0  0  0  0  0  0  0  0  0  0  0
  4  5  1  0
  2  3  1  0
  5  6  2  0
  6  1  1  0
  1  2  2  0
  6  7  1  0
  3  4  2  0
  4  8  1  0
M  END

> <chembl_id>
CHEMBL57342

> <chembl_pref_name>
None

$$$$

     RDKit          2D

  9  9  0  0  0  0  0  0  0  0999 V2000
    1.3900  -16.2452    0.0000 C   0  0  0  0  0  0  0  0  0  0  0  0
    2.2008  -16.0886    0.0000 N   0  0  0  0  0  0  0  0  0  0  0  0
    2.2989  -15.2678    0.0000 C   0  0  0  0  0  0  0  0  0  0  0  0
    1.5488  -14.9242    0.0000 C   0  0  0  0  0  0  0  0  0  0  0  0
    0.9915  -15.5296    0.0000 O   0  0  0  0  0  0  0  0  0  0  0  0
    3.0188  -14.8646    0.0000 C   0  0  0  0  0  0  0  0  0  0  0  0
    1.0433  -16.9896    0.0000 S   0  0  0  0  0  0  0  0  0  0  0  0
    0.2252  -17.0615    0.0000 C   0  0  0  0  0  0  0  0  0  0  0  0
    3.0295  -14.0434    0.0000 O   0  0  0  0  0  0  0  0  0  0  0  0
  3  4  2  0
  4  5  1  0
  5  1  1  0
  3  6  1  0
  1  7  1  0
  1  2  2  0
  7  8  1  0
  2  3  1  0
  6  9  2  0
M  END

> <chembl_id>
CHEMBL458840

> <chembl_pref_name>
None

$$$$

     RDKit          2D

  8  8  0  0  0  0  0  0  0  0999 V2000
   -3.0044   -0.8922    0.0000 S   0  0  0  0  0  0  0  0  0  0  0  0
   -2.3369    0.4177    0.0000 P   0  0  0  0  0  0  0  0  0  0  0  0
   -1.6225    0.8302    0.0000 O   0  0  0  0  0  0  0  0  0  0  0  0
   -3.0514    0.8302    0.0000 O   0  0  0  0  0  0  0  0  0  0  0  0
   -2.3369   -0.4073    0.0000 C   0  0  0  0  0  0  0  0  0  0  0  0
   -1.6695   -0.8922    0.0000 C   0  0  0  0  0  0  0  0  0  0  0  0
   -2.7494   -1.6769    0.0000 C   0  0  0  0  0  0  0  0  0  0  0  0
   -1.9244   -1.6769    0.0000 C   0  0  0  0  0  0  0  0  0  0  0  0
  1  5  1  0
  1  7  1  0
  2  3  2  0
  2  4  1  0
  2  5  1  0
  5  6  2  0
  6  8  1  0
  7  8  2  0
M  END

> <chembl_id>
CHEMBL1978909

> <chembl_pref_name>
None

$$$$

     RDKit          2D

 10 10  0  0  0  0  0  0  0  0999 V2000
    0.6625    0.7333    0.0000 N   0  0  0  0  0  0  0  0  0  0  0  0
    0.7500   -0.0875    0.0000 C   0  0  0  0  0  0  0  0  0  0  0  0
   -0.5583    0.1875    0.0000 N   0  0  0  0  0  0  0  0  0  0  0  0
   -0.1458    0.9083    0.0000 C   0  0  0  0  0  0  0  0  0  0  0  0
    2.8917   -0.5000    0.0000 C   0  0  0  0  0  0  0  0  0  0  0  0
    0.0000   -0.4167    0.0000 C   0  0  0  0  0  0  0  0  0  0  0  0
    2.8875   -1.3167    0.0000 O   0  0  0  0  0  0  0  0  0  0  0  0
    1.4625   -0.5000    0.0000 C   0  0  0  0  0  0  0  0  0  0  0  0
    2.1792   -0.0875    0.0000 C   0  0  0  0  0  0  0  0  0  0  0  0
    3.6042   -0.0792    0.0000 O   0  0  0  0  0  0  0  0  0  0  0  0
  2  1  1  0
  3  4  1  0
  4  1  2  0
  5  9  1  0
  6  2  2  0
  7  5  2  0
  8  2  1  0
  9  8  1  0
 10  5  1  0
  3  6  1  0
M  END

> <chembl_id>
CHEMBL84253

> <chembl_pref_name>
None

$$$$

     RDKit          2D

 10 10  0  0  0  0  0  0  0  0999 V2000
   23.1456   -9.3086    0.0000 C   0  0  0  0  0  0  0  0  0  0  0  0
   21.8820   -8.6463    0.0000 C   0  0  0  0  0  0  0  0  0  0  0  0
   21.0552   -8.6763    0.0000 C   0  0  0  0  0  0  0  0  0  0  0  0
   20.6695   -9.4063    0.0000 C   0  0  0  0  0  0  0  0  0  0  0  0
   21.1095  -10.1066    0.0000 C   0  0  0  0  0  0  0  0  0  0  0  0
   21.9394  -10.0725    0.0000 C   0  0  0  0  0  0  0  0  0  0  0  0
   22.3213   -9.3422    0.0000 C   0  0  0  0  0  0  0  0  0  0  0  0
   23.5869  -10.0059    0.0000 C   0  0  0  0  0  0  0  0  0  0  0  0
   24.4113   -9.9724    0.0000 N   0  0  0  0  0  0  0  0  0  0  0  0
   23.2037  -10.7365    0.0000 C   0  0  0  0  0  0  0  0  0  0  0  0
  2  3  2  0
  3  4  1  0
  4  5  2  0
  5  6  1  0
  6  7  2  0
  7  2  1  0
  7  1  1  0
  1  8  1  0
  8  9  1  0
  8 10  1  0
M  END

> <chembl_id>
CHEMBL405

> <chembl_pref_name>
AMPHETAMINE

$$$$

     RDKit          2D

  9  9  0  0  0  0  0  0  0  0999 V2000
   -0.5000  -15.3750    0.0000 N   0  0  0  0  0  0  0  0  0  0  0  0
   -1.1083  -15.4042    0.0000 C   0  0  0  0  0  0  0  0  0  0  0  0
   -0.2833  -15.9417    0.0000 C   0  0  0  0  0  0  0  0  0  0  0  0
   -0.7583  -16.3167    0.0000 S   0  0  0  0  0  0  0  0  0  0  0  0
   -1.2625  -15.9875    0.0000 C   0  0  0  0  0  0  0  0  0  0  0  0
    0.2750  -16.1625    0.0000 N   0  0  0  0  0  0  0  0  0  0  0  0
   -1.4833  -14.9292    0.0000 O   0  0  0  0  0  0  0  0  0  0  0  0
    0.8125  -15.6625    0.0000 N   0  0  0  0  0  0  0  0  0  0  0  0
   -1.8208  -16.2042    0.0000 C   0  0  0  0  0  0  0  0  0  0  0  0
  2  1  1  0
  3  1  2  0
  4  3  1  0
  5  2  2  0
  6  3  1  0
  7  2  1  0
  8  6  1  0
  9  5  1  0
  5  4  1  0
M  END

> <chembl_id>
CHEMBL68652

> <chembl_pref_name>
None

$$$$

     RDKit          2D

  9  9  0  0  0  0  0  0  0  0999 V2000
    0.6874   -8.9410    0.0000 N   0  0  0  0  0  0  0  0  0  0  0  0
    1.5124   -8.9410    0.0000 O   0  0  0  0  0  0  0  0  0  0  0  0
    1.7692   -8.1570    0.0000 C   0  0  0  0  0  0  0  0  0  0  0  0
    1.0999   -7.6702    0.0000 C   0  0  0  0  0  0  0  0  0  0  0  0
    0.4349   -8.1570    0.0000 C   0  0  0  0  0  0  0  0  0  0  0  0
    2.5574   -7.9012    0.0000 C   0  0  0  0  0  0  0  0  0  0  0  0
    3.1698   -8.4540    0.0000 O   0  0  0  0  0  0  0  0  0  0  0  0
    2.7301   -7.0944    0.0000 O   0  0  0  0  0  0  0  0  0  0  0  0
   -0.3498   -7.9024    0.0000 C   0  0  0  0  0  0  0  0  0  0  0  0
  4  5  1  0
  5  1  2  0
  1  2  1  0
  2  3  1  0
  6  7  1  0
  6  8  2  0
  3  6  1  0
  3  4  2  0
  5  9  1  0
M  END

> <chembl_id>
CHEMBL393428

> <chembl_pref_name>
None

$$$$

     RDKit          2D

  9  9  0  0  0  0  0  0  0  0999 V2000
   23.5169   -3.0043    0.0000 C   0  0  0  0  0  0  0  0  0  0  0  0
   24.3341   -3.0047    0.0000 C   0  0  0  0  0  0  0  0  0  0  0  0
   24.5885   -2.2279    0.0000 N   0  0  0  0  0  0  0  0  0  0  0  0
   23.9255   -1.7458    0.0000 N   0  0  0  0  0  0  0  0  0  0  0  0
   23.2668   -2.2279    0.0000 C   0  0  0  0  0  0  0  0  0  0  0  0
   23.9243   -0.9286    0.0000 O   0  0  0  0  0  0  0  0  0  0  0  0
   23.0988   -3.7064    0.0000 C   0  0  0  0  0  0  0  0  0  0  0  0
   22.2817   -3.6954    0.0000 N   0  0  0  0  0  0  0  0  0  0  0  0
   22.4894   -1.9758    0.0000 Cl  0  0  0  0  0  0  0  0  0  0  0  0
  1  2  1  0
  2  3  2  0
  3  4  1  0
  4  5  1  0
  5  1  2  0
  4  6  1  0
  1  7  1  0
  7  8  1  0
  5  9  1  0
M  END

> <chembl_id>
CHEMBL2315214

> <chembl_pref_name>
None

$$$$

     RDKit          2D

 10 10  0  0  0  0  0  0  0  0999 V2000
   -0.2417   -1.3260    0.0000 O   0  0  0  0  0  0  0  0  0  0  0  0
    0.4728   -0.0885    0.0000 N   0  0  0  0  0  0  0  0  0  0  0  0
    1.1873   -1.3260    0.0000 C   0  0  0  0  0  0  0  0  0  0  0  0
    1.9017   -0.9135    0.0000 C   0  0  0  0  0  0  0  0  0  0  0  0
    0.4728   -0.9135    0.0000 C   0  0  0  0  0  0  0  0  0  0  0  0
    1.1873   -2.1510    0.0000 C   0  0  0  0  0  0  0  0  0  0  0  0
    2.6162   -1.3260    0.0000 C   0  0  0  0  0  0  0  0  0  0  0  0
    1.9017   -2.5635    0.0000 C   0  0  0  0  0  0  0  0  0  0  0  0
    2.6162   -2.1510    0.0000 C   0  0  0  0  0  0  0  0  0  0  0  0
    1.9017   -0.0885    0.0000 C   0  0  0  0  0  0  0  0  0  0  0  0
  1  5  2  0
  2  5  1  0
  3  4  1  0
  3  5  1  0
  3  6  2  0
  4  7  2  0
  4 10  1  0
  6  8  1  0
  7  9  1  0
  8  9  2  0
M  END

> <chembl_id>
CHEMBL1489405

> <chembl_pref_name>
None

$$$$

     RDKit          2D

  9  9  0  0  0  0  0  0  0  0999 V2000
   13.1167   -6.5667    0.0000 N   0  0  0  0  0  0  0  0  0  0  0  0
   13.0667   -5.6042    0.0000 C   0  0  0  0  0  0  0  0  0  0  0  0
   13.4500   -6.0667    0.0000 C   0  0  0  0  0  0  0  0  0  0  0  0
   12.5417   -6.4125    0.0000 C   0  0  0  0  0  0  0  0  0  0  0  0
   12.5167   -5.8167    0.0000 C   0  0  0  0  0  0  0  0  0  0  0  0
   13.2292   -5.0250    0.0000 C   0  0  0  0  0  0  0  0  0  0  0  0
   12.9542   -4.0167    0.0000 N   0  0  0  0  0  0  0  0  0  0  0  0
   12.8042   -4.6000    0.0000 C   0  0  0  0  0  0  0  0  0  0  0  0
   12.2250   -4.7542    0.0000 C   0  0  0  0  0  0  0  0  0  0  0  0
  2  3  2  0
  3  1  1  0
  4  1  1  0
  5  4  2  0
  6  2  1  0
  7  8  1  0
  8  6  1  0
  9  8  1  0
  2  5  1  0
M  END

> <chembl_id>
CHEMBL328939

> <chembl_pref_name>
None

$$$$

     RDKit          2D

  9  9  0  0  0  0  0  0  0  0999 V2000
    6.1250   -6.1167    0.0000 C   0  0  0  0  0  0  0  0  0  0  0  0
    6.1250   -6.7250    0.0000 C   0  0  0  0  0  0  0  0  0  0  0  0
    5.6000   -5.8167    0.0000 C   0  0  0  0  0  0  0  0  0  0  0  0
    5.6000   -7.0250    0.0000 N   0  0  0  0  0  0  0  0  0  0  0  0
    5.0792   -6.1167    0.0000 C   0  0  0  0  0  0  0  0  0  0  0  0
    5.0792   -6.7250    0.0000 C   0  0  0  0  0  0  0  0  0  0  0  0
    5.5917   -5.2167    0.0000 O   0  0  0  0  0  0  0  0  0  0  0  0
    6.6417   -5.8125    0.0000 O   0  0  0  0  0  0  0  0  0  0  0  0
    6.6417   -7.0250    0.0000 C   0  0  0  0  0  0  0  0  0  0  0  0
  2  1  1  0
  3  1  2  0
  4  2  2  0
  5  3  1  0
  6  5  2  0
  7  3  1  0
  8  1  1  0
  9  2  1  0
  6  4  1  0
M  END

> <chembl_id>
CHEMBL295082

> <chembl_pref_name>
None

$$$$

     RDKit          2D

  9  9  0  0  0  0  0  0  0  0999 V2000
    2.3347    1.9073    0.0000 C   0  0  0  0  0  0  0  0  0  0  0  0
    2.3335    1.0804    0.0000 C   0  0  0  0  0  0  0  0  0  0  0  0
    3.0479    0.6677    0.0000 C   0  0  0  0  0  0  0  0  0  0  0  0
    3.7640    1.0809    0.0000 C   0  0  0  0  0  0  0  0  0  0  0  0
    3.7611    1.9109    0.0000 C   0  0  0  0  0  0  0  0  0  0  0  0
    3.0461    2.3197    0.0000 C   0  0  0  0  0  0  0  0  0  0  0  0
    3.0437    3.1443    0.0000 O   0  0  0  0  0  0  0  0  0  0  0  0
    4.4736    2.3258    0.0000 N   0  0  0  0  0  0  0  0  0  0  0  0
    3.0477   -0.1568    0.0000 Cl  0  0  0  0  0  0  0  0  0  0  0  0
  4  5  1  0
  2  3  1  0
  5  6  2  0
  6  1  1  0
  1  2  2  0
  6  7  1  0
  3  4  2  0
  5  8  1  0
  3  9  1  0
M  END

> <chembl_id>
CHEMBL251389

> <chembl_pref_name>
None

$$$$

     RDKit          2D

 10 10  0  0  0  0  0  0  0  0999 V2000
   -5.4003   -2.8368    0.0000 C   0  0  0  0  0  0  0  0  0  0  0  0
   -5.4015   -3.6644    0.0000 C   0  0  0  0  0  0  0  0  0  0  0  0
   -4.6887   -4.0773    0.0000 C   0  0  0  0  0  0  0  0  0  0  0  0
   -3.9694   -3.6638    0.0000 C   0  0  0  0  0  0  0  0  0  0  0  0
   -3.9725   -2.8328    0.0000 C   0  0  0  0  0  0  0  0  0  0  0  0
   -4.6907   -2.4241    0.0000 C   0  0  0  0  0  0  0  0  0  0  0  0
   -3.2601   -2.4168    0.0000 C   0  0  0  0  0  0  0  0  0  0  0  0
   -2.5438   -2.8258    0.0000 C   0  0  0  0  0  0  0  0  0  0  0  0
   -1.8314   -2.4097    0.0000 N   0  0  0  0  0  0  0  0  0  0  0  0
   -1.1149   -2.8186    0.0000 C   0  0  0  0  0  0  0  0  0  0  0  0
  2  3  1  0
  5  6  2  0
  6  1  1  0
  1  2  2  0
  5  7  1  0
  3  4  2  0
  7  8  1  0
  8  9  1  0
  4  5  1  0
  9 10  1  0
M  END

> <chembl_id>
CHEMBL45763

> <chembl_pref_name>
None

$$$$

     RDKit          2D

  9  9  0  0  0  0  0  0  0  0999 V2000
   -1.0163   -1.4854    0.0000 Cl  0  0  0  0  0  0  0  0  0  0  0  0
   -0.3019    1.4021    0.0000 O   0  0  0  0  0  0  0  0  0  0  0  0
    0.4126   -1.4854    0.0000 N   0  0  0  0  0  0  0  0  0  0  0  0
    0.4126    0.1646    0.0000 C   0  0  0  0  0  0  0  0  0  0  0  0
   -0.3019   -1.0729    0.0000 C   0  0  0  0  0  0  0  0  0  0  0  0
   -0.3019   -0.2479    0.0000 C   0  0  0  0  0  0  0  0  0  0  0  0
    1.1271   -0.2479    0.0000 C   0  0  0  0  0  0  0  0  0  0  0  0
    1.1271   -1.0729    0.0000 C   0  0  0  0  0  0  0  0  0  0  0  0
    0.4126    0.9896    0.0000 C   0  0  0  0  0  0  0  0  0  0  0  0
  1  5  1  0
  2  9  1  0
  3  5  1  0
  3  8  2  0
  4  6  1  0
  4  7  2  0
  4  9  1  0
  5  6  2  0
  7  8  1  0
M  END

> <chembl_id>
CHEMBL1545251

> <chembl_pref_name>
None

$$$$

     RDKit          2D

 11 11  0  0  0  0  0  0  0  0999 V2000
   -2.0365    2.3330    0.0000 C   0  0  0  0  0  0  0  0  0  0  0  0
   -2.0379    1.5053    0.0000 C   0  0  0  0  0  0  0  0  0  0  0  0
   -1.3248    1.0924    0.0000 C   0  0  0  0  0  0  0  0  0  0  0  0
   -0.6055    1.5059    0.0000 C   0  0  0  0  0  0  0  0  0  0  0  0
   -0.6087    2.3369    0.0000 C   0  0  0  0  0  0  0  0  0  0  0  0
   -1.3268    2.7457    0.0000 C   0  0  0  0  0  0  0  0  0  0  0  0
   -2.7514    2.7448    0.0000 C   0  0  0  0  0  0  0  0  0  0  0  0
   -3.4655    2.3318    0.0000 C   0  0  0  0  0  0  0  0  0  0  0  0
   -4.1803    2.7436    0.0000 C   0  0  0  0  0  0  0  0  0  0  0  0
   -4.8944    2.3306    0.0000 C   0  0  0  0  0  0  0  0  0  0  0  0
   -4.1810    3.5686    0.0000 O   0  0  0  0  0  0  0  0  0  0  0  0
  5  6  2  0
  6  1  1  0
  1  2  2  0
  1  7  1  0
  3  4  2  0
  7  8  2  0
  8  9  1  0
  4  5  1  0
  9 10  1  0
  2  3  1  0
  9 11  2  0
M  END

> <chembl_id>
CHEMBL73639

> <chembl_pref_name>
BUTENONE

$$$$

     RDKit          2D

 11 11  0  0  0  0  0  0  0  0999 V2000
   -3.3623   -0.9542    0.0000 N   0  0  0  0  0  0  0  0  0  0  0  0
   -1.9333   -0.9542    0.0000 N   0  0  0  0  0  0  0  0  0  0  0  0
   -2.6478    1.1083    0.0000 N   0  0  0  0  0  0  0  0  0  0  0  0
   -3.3623   -1.7792    0.0000 C   0  0  0  0  0  0  0  0  0  0  0  0
   -2.6478   -0.5417    0.0000 C   0  0  0  0  0  0  0  0  0  0  0  0
   -2.6478   -2.1917    0.0000 C   0  0  0  0  0  0  0  0  0  0  0  0
   -4.0767   -2.1917    0.0000 C   0  0  0  0  0  0  0  0  0  0  0  0
   -2.6478    0.2833    0.0000 C   0  0  0  0  0  0  0  0  0  0  0  0
   -2.6478   -3.0167    0.0000 C   0  0  0  0  0  0  0  0  0  0  0  0
   -4.0767   -3.0167    0.0000 C   0  0  0  0  0  0  0  0  0  0  0  0
   -3.3623   -3.4292    0.0000 C   0  0  0  0  0  0  0  0  0  0  0  0
  1  4  1  0
  1  5  2  0
  2  5  1  0
  3  8  3  0
  4  6  2  0
  4  7  1  0
  5  8  1  0
  6  9  1  0
  7 10  2  0
  9 11  2  0
 10 11  1  0
M  END

> <chembl_id>
CHEMBL1992168

> <chembl_pref_name>
None

$$$$

     RDKit          2D

  7  7  0  0  0  0  0  0  0  0999 V2000
    3.8417   -1.8845    0.0000 C   0  0  0  0  0  0  0  0  0  0  0  0
    3.3910   -2.5714    0.0000 N   0  0  0  0  0  0  0  0  0  0  0  0
    2.5957   -2.3564    0.0000 C   0  0  0  0  0  0  0  0  0  0  0  0
    2.5569   -1.5324    0.0000 C   0  0  0  0  0  0  0  0  0  0  0  0
    3.3293   -1.2411    0.0000 N   0  0  0  0  0  0  0  0  0  0  0  0
    1.8795   -2.7684    0.0000 C   0  0  0  0  0  0  0  0  0  0  0  0
    1.1614   -2.3570    0.0000 O   0  0  0  0  0  0  0  0  0  0  0  0
  1  2  2  0
  2  3  1  0
  3  4  2  0
  4  5  1  0
  1  5  1  0
  6  7  1  0
  3  6  1  0
M  END

> <chembl_id>
CHEMBL1397797

> <chembl_pref_name>
None

$$$$

     RDKit          2D

 10 11  0  0  0  0  0  0  0  0999 V2000
   -0.4153    2.3624    0.0000 O   0  0  0  0  0  0  0  0  0  0  0  0
   -0.4153    1.5374    0.0000 N   0  0  0  0  0  0  0  0  0  0  0  0
   -0.4153   -0.1126    0.0000 C   0  0  0  0  0  0  0  0  0  0  0  0
   -0.4153   -0.9376    0.0000 C   0  0  0  0  0  0  0  0  0  0  0  0
    0.2991    0.2999    0.0000 C   0  0  0  0  0  0  0  0  0  0  0  0
   -1.1298    0.2999    0.0000 C   0  0  0  0  0  0  0  0  0  0  0  0
   -0.0028   -1.6520    0.0000 C   0  0  0  0  0  0  0  0  0  0  0  0
   -0.8278   -1.6520    0.0000 C   0  0  0  0  0  0  0  0  0  0  0  0
    0.2991    1.1249    0.0000 C   0  0  0  0  0  0  0  0  0  0  0  0
   -1.1298    1.1249    0.0000 C   0  0  0  0  0  0  0  0  0  0  0  0
  1  2  1  0
  2  9  2  0
  2 10  1  0
  3  4  1  0
  3  5  2  0
  3  6  1  0
  4  7  1  0
  4  8  1  0
  5  9  1  0
  6 10  2  0
  7  8  1  0
M  CHG  2   1  -1   2   1
M  END

> <chembl_id>
CHEMBL1382878

> <chembl_pref_name>
None

$$$$

     RDKit          2D

 11 12  0  0  0  0  0  0  0  0999 V2000
   -3.5365   -2.8875    0.0000 N   0  0  0  0  0  0  0  0  0  0  0  0
   -3.5365   -1.2375    0.0000 N   0  0  0  0  0  0  0  0  0  0  0  0
   -0.6786   -2.8875    0.0000 N   0  0  0  0  0  0  0  0  0  0  0  0
   -2.8220   -2.4750    0.0000 C   0  0  0  0  0  0  0  0  0  0  0  0
   -2.8220   -1.6500    0.0000 C   0  0  0  0  0  0  0  0  0  0  0  0
   -2.1076   -2.8875    0.0000 C   0  0  0  0  0  0  0  0  0  0  0  0
   -2.1076   -1.2375    0.0000 C   0  0  0  0  0  0  0  0  0  0  0  0
   -1.3931   -2.4750    0.0000 C   0  0  0  0  0  0  0  0  0  0  0  0
   -4.2510   -2.4750    0.0000 C   0  0  0  0  0  0  0  0  0  0  0  0
   -4.2510   -1.6500    0.0000 C   0  0  0  0  0  0  0  0  0  0  0  0
   -1.3931   -1.6500    0.0000 C   0  0  0  0  0  0  0  0  0  0  0  0
  1  4  1  0
  1  9  1  0
  2  5  1  0
  2 10  1  0
  3  8  1  0
  4  5  2  0
  4  6  1  0
  5  7  1  0
  6  8  2  0
  7 11  2  0
  8 11  1  0
  9 10  1  0
M  END

> <chembl_id>
CHEMBL2006838

> <chembl_pref_name>
None

$$$$

     RDKit          2D

 10 10  0  0  0  0  0  0  0  0999 V2000
    6.1292   -4.1917    0.0000 C   0  0  0  0  0  0  0  0  0  0  0  0
    6.8417   -3.7750    0.0000 C   0  0  0  0  0  0  0  0  0  0  0  0
    5.4125   -3.7792    0.0000 N   0  0  0  0  0  0  0  0  0  0  0  0
    6.8375   -2.9500    0.0000 O   0  0  0  0  0  0  0  0  0  0  0  0
    5.4125   -5.4375    0.0000 N   0  0  0  0  0  0  0  0  0  0  0  0
    6.1292   -5.0250    0.0000 C   0  0  0  0  0  0  0  0  0  0  0  0
    7.5625   -4.1875    0.0000 O   0  0  0  0  0  0  0  0  0  0  0  0
    4.7000   -4.1917    0.0000 C   0  0  0  0  0  0  0  0  0  0  0  0
    4.7000   -5.0250    0.0000 C   0  0  0  0  0  0  0  0  0  0  0  0
    8.2750   -3.7750    0.0000 C   0  0  0  0  0  0  0  0  0  0  0  0
  2  1  1  0
  3  1  2  0
  4  2  2  0
  5  6  2  0
  6  1  1  0
  7  2  1  0
  8  3  1  0
  9  5  1  0
 10  7  1  0
  9  8  2  0
M  END

> <chembl_id>
CHEMBL114792

> <chembl_pref_name>
None

$$$$

     RDKit          2D

  8  8  0  0  0  0  0  0  0  0999 V2000
   -3.4214   -0.0553    0.0000 Cl  0  0  0  0  0  0  0  0  0  0  0  0
   -1.9925    2.4197    0.0000 O   0  0  0  0  0  0  0  0  0  0  0  0
   -1.9925   -0.0553    0.0000 N   0  0  0  0  0  0  0  0  0  0  0  0
   -1.2780    1.1822    0.0000 N   0  0  0  0  0  0  0  0  0  0  0  0
   -2.7069    0.3572    0.0000 C   0  0  0  0  0  0  0  0  0  0  0  0
   -1.9925    1.5947    0.0000 C   0  0  0  0  0  0  0  0  0  0  0  0
   -2.7069    1.1822    0.0000 C   0  0  0  0  0  0  0  0  0  0  0  0
   -1.2780    0.3572    0.0000 C   0  0  0  0  0  0  0  0  0  0  0  0
  1  5  1  0
  2  6  1  0
  3  5  1  0
  3  8  2  0
  4  6  2  0
  4  8  1  0
  5  7  2  0
  6  7  1  0
M  END

> <chembl_id>
CHEMBL1983289

> <chembl_pref_name>
None

$$$$

     RDKit          2D

  8  8  0  0  0  0  0  0  0  0999 V2000
   -0.6249   -0.1959    0.0000 N   0  0  0  0  0  0  0  0  0  0  0  0
    0.8041    2.2791    0.0000 N   0  0  0  0  0  0  0  0  0  0  0  0
    0.0896    1.0416    0.0000 C   0  0  0  0  0  0  0  0  0  0  0  0
   -0.6249    0.6291    0.0000 C   0  0  0  0  0  0  0  0  0  0  0  0
    0.8041    0.6291    0.0000 C   0  0  0  0  0  0  0  0  0  0  0  0
    0.8041   -0.1959    0.0000 C   0  0  0  0  0  0  0  0  0  0  0  0
    0.0896    1.8666    0.0000 C   0  0  0  0  0  0  0  0  0  0  0  0
    0.0896   -0.6084    0.0000 C   0  0  0  0  0  0  0  0  0  0  0  0
  1  4  2  0
  1  8  1  0
  2  7  1  0
  3  4  1  0
  3  5  2  0
  3  7  1  0
  5  6  1  0
  6  8  2  0
M  END

> <chembl_id>
CHEMBL1988272

> <chembl_pref_name>
PICOLAMINE

$$$$

     RDKit          2D

 10 10  0  0  0  0  0  0  0  0999 V2000
    6.1375   -8.9042    0.0000 N   0  0  0  0  0  0  0  0  0  0  0  0
    5.4167   -8.4917    0.0000 C   0  0  0  0  0  0  0  0  0  0  0  0
    6.1375   -9.7292    0.0000 C   0  0  0  0  0  0  0  0  0  0  0  0
    4.7042   -8.9042    0.0000 N   0  0  0  0  0  0  0  0  0  0  0  0
    5.4167   -7.6625    0.0000 N   0  0  0  0  0  0  0  0  0  0  0  0
    6.8542  -10.1375    0.0000 N   0  0  0  0  0  0  0  0  0  0  0  0
    5.4250  -10.1417    0.0000 N   0  0  0  0  0  0  0  0  0  0  0  0
    3.9917   -7.6625    0.0000 C   0  0  0  0  0  0  0  0  0  0  0  0
    3.9917   -8.4917    0.0000 C   0  0  0  0  0  0  0  0  0  0  0  0
    4.7042   -7.2500    0.0000 C   0  0  0  0  0  0  0  0  0  0  0  0
  2  1  1  0
  3  1  1  0
  4  2  2  0
  5  2  1  0
  6  3  2  0
  7  3  1  0
  8 10  1  0
  9  4  1  0
 10  5  2  0
  9  8  2  0
M  END

> <chembl_id>
CHEMBL54989

> <chembl_pref_name>
None

$$$$

     RDKit          2D

 10 10  0  0  1  0  0  0  0  0999 V2000
    4.0500   -3.4292    0.0000 C   0  0  0  0  0  0  0  0  0  0  0  0
    3.9750   -4.2542    0.0000 N   0  0  0  0  0  0  0  0  0  0  0  0
    4.7542   -3.0042    0.0000 C   0  0  0  0  0  0  0  0  0  0  0  0
    2.7375   -3.7167    0.0000 N   0  0  0  0  0  0  0  0  0  0  0  0
    3.1625   -4.4375    0.0000 C   0  0  0  0  0  0  0  0  0  0  0  0
    3.2875   -3.1000    0.0000 C   0  0  0  0  0  0  0  0  0  0  0  0
    5.4750   -3.4125    0.0000 C   0  0  0  0  0  0  0  0  0  0  0  0
    5.4875   -4.2375    0.0000 N   0  0  0  0  0  0  0  0  0  0  0  0
    4.7417   -2.1792    0.0000 C   0  0  0  0  0  0  0  0  0  0  0  0
    6.1875   -2.9917    0.0000 C   0  0  0  0  0  0  0  0  0  0  0  0
  2  1  1  0
  3  1  1  0
  4  6  1  0
  5  2  2  0
  6  1  2  0
  7  3  1  0
  7  8  1  6
  3  9  1  6
 10  7  1  0
  4  5  1  0
M  END

> <chembl_id>
CHEMBL18641

> <chembl_pref_name>
None

$$$$

     RDKit          2D

  7  7  0  0  0  0  0  0  0  0999 V2000
    9.9658   -0.9445    0.0000 N   0  0  0  0  0  0  0  0  0  0  0  0
   10.6540   -1.3993    0.0000 S   0  0  0  0  0  0  0  0  0  0  0  0
   11.3024   -0.8897    0.0000 S   0  0  0  0  0  0  0  0  0  0  0  0
   11.0167   -0.1153    0.0000 C   0  0  0  0  0  0  0  0  0  0  0  0
   10.1917   -0.1492    0.0000 C   0  0  0  0  0  0  0  0  0  0  0  0
   11.4715    0.5730    0.0000 S   0  0  0  0  0  0  0  0  0  0  0  0
    9.6795    0.4956    0.0000 C   0  0  0  0  0  0  0  0  0  0  0  0
  2  3  1  0
  3  4  1  0
  4  5  1  0
  5  1  2  0
  1  2  1  0
  4  6  2  0
  5  7  1  0
M  END

> <chembl_id>
CHEMBL457460

> <chembl_pref_name>
None

$$$$

     RDKit          2D

  8  8  0  0  0  0  0  0  0  0999 V2000
    2.9292   -1.4667    0.0000 N   0  0  0  0  0  0  0  0  0  0  0  0
    2.9292   -2.2917    0.0000 C   0  0  0  0  0  0  0  0  0  0  0  0
    3.6417   -1.0500    0.0000 C   0  0  0  0  0  0  0  0  0  0  0  0
    3.6417   -2.7042    0.0000 N   0  0  0  0  0  0  0  0  0  0  0  0
    4.3625   -1.4625    0.0000 C   0  0  0  0  0  0  0  0  0  0  0  0
    4.3625   -2.2917    0.0000 C   0  0  0  0  0  0  0  0  0  0  0  0
    3.6417   -0.2167    0.0000 O   0  0  0  0  0  0  0  0  0  0  0  0
    2.2167   -2.7042    0.0000 N   0  0  0  0  0  0  0  0  0  0  0  0
  2  1  2  0
  3  1  1  0
  4  2  1  0
  5  3  2  0
  6  5  1  0
  7  3  1  0
  8  2  1  0
  6  4  2  0
M  END

> <chembl_id>
CHEMBL56260

> <chembl_pref_name>
None

$$$$

     RDKit          2D

 10 10  0  0  0  0  0  0  0  0999 V2000
    4.9292   -4.3792    0.0000 N   0  0  0  0  0  0  0  0  0  0  0  0
    5.6417   -4.7917    0.0000 C   0  0  0  0  0  0  0  0  0  0  0  0
    4.9292   -6.0292    0.0000 N   0  0  0  0  0  0  0  0  0  0  0  0
    5.6417   -5.6167    0.0000 C   0  0  0  0  0  0  0  0  0  0  0  0
    4.2167   -4.7917    0.0000 C   0  0  0  0  0  0  0  0  0  0  0  0
    4.2167   -5.6167    0.0000 C   0  0  0  0  0  0  0  0  0  0  0  0
    6.3542   -4.3792    0.0000 O   0  0  0  0  0  0  0  0  0  0  0  0
    6.3542   -6.0292    0.0000 C   0  0  0  0  0  0  0  0  0  0  0  0
    3.5042   -4.3792    0.0000 C   0  0  0  0  0  0  0  0  0  0  0  0
    7.0667   -4.7917    0.0000 C   0  0  0  0  0  0  0  0  0  0  0  0
  2  1  2  0
  3  6  1  0
  4  2  1  0
  5  1  1  0
  6  5  2  0
  7  2  1  0
  8  4  1  0
  9  5  1  0
 10  7  1  0
  3  4  2  0
M  END

> <chembl_id>
CHEMBL94628

> <chembl_pref_name>
None

$$$$

     RDKit          2D

 11 12  0  0  0  0  0  0  0  0999 V2000
    3.4402  -14.1205    0.0000 C   0  0  0  0  0  0  0  0  0  0  0  0
    3.4390  -14.9479    0.0000 C   0  0  0  0  0  0  0  0  0  0  0  0
    4.1538  -15.3607    0.0000 C   0  0  0  0  0  0  0  0  0  0  0  0
    4.8702  -14.9474    0.0000 C   0  0  0  0  0  0  0  0  0  0  0  0
    4.8674  -14.1169    0.0000 C   0  0  0  0  0  0  0  0  0  0  0  0
    4.1520  -13.7078    0.0000 C   0  0  0  0  0  0  0  0  0  0  0  0
    5.5789  -13.6995    0.0000 C   0  0  0  0  0  0  0  0  0  0  0  0
    6.4039  -13.6965    0.0000 C   0  0  0  0  0  0  0  0  0  0  0  0
    5.9888  -12.9836    0.0000 C   0  0  0  0  0  0  0  0  0  0  0  0
    7.1200  -14.1063    0.0000 N   0  0  0  0  0  0  0  0  0  0  0  0
    5.9857  -12.1586    0.0000 C   0  0  0  0  0  0  0  0  0  0  0  0
  1  2  2  0
  2  3  1  0
  3  4  2  0
  4  5  1  0
  5  6  2  0
  6  1  1  0
  8  7  1  0
  9  8  1  0
  7  9  1  0
  7  5  1  1
  8 10  1  6
  9 11  1  6
M  END


> <chembl_id>
CHEMBL4302929

> <chembl_pref_name>
None

$$$$

     RDKit          2D

 10 10  0  0  0  0  0  0  0  0999 V2000
   -3.0065   -0.3300    0.0000 O   0  0  0  0  0  0  0  0  0  0  0  0
   -2.2920   -1.5675    0.0000 C   0  0  0  0  0  0  0  0  0  0  0  0
   -1.5776   -1.9800    0.0000 C   0  0  0  0  0  0  0  0  0  0  0  0
   -3.0065   -1.9800    0.0000 C   0  0  0  0  0  0  0  0  0  0  0  0
   -1.5776   -2.8050    0.0000 C   0  0  0  0  0  0  0  0  0  0  0  0
   -3.0065   -2.8050    0.0000 C   0  0  0  0  0  0  0  0  0  0  0  0
   -2.2920   -0.7425    0.0000 C   0  0  0  0  0  0  0  0  0  0  0  0
   -2.2920   -3.2175    0.0000 C   0  0  0  0  0  0  0  0  0  0  0  0
   -0.8631   -1.5675    0.0000 C   0  0  0  0  0  0  0  0  0  0  0  0
   -3.7210   -1.5675    0.0000 C   0  0  0  0  0  0  0  0  0  0  0  0
  1  7  1  0
  2  3  2  0
  2  4  1  0
  2  7  1  0
  3  5  1  0
  3  9  1  0
  4  6  2  0
  4 10  1  0
  5  8  2  0
  6  8  1  0
M  END

> <chembl_id>
CHEMBL1996303

> <chembl_pref_name>
None

$$$$

     RDKit          2D

  9  9  0  0  0  0  0  0  0  0999 V2000
    1.1042    0.4000    0.0000 C   0  0  0  0  0  0  0  0  0  0  0  0
    1.8167   -0.0125    0.0000 C   0  0  0  0  0  0  0  0  0  0  0  0
    0.3167    1.4708    0.0000 N   0  0  0  0  0  0  0  0  0  0  0  0
    0.3292    0.1458    0.0000 S   0  0  0  0  0  0  0  0  0  0  0  0
    1.1042    1.2208    0.0000 C   0  0  0  0  0  0  0  0  0  0  0  0
   -0.1583    0.8083    0.0000 C   0  0  0  0  0  0  0  0  0  0  0  0
    1.8167   -0.8375    0.0000 O   0  0  0  0  0  0  0  0  0  0  0  0
    2.5292    0.4000    0.0000 N   0  0  0  0  0  0  0  0  0  0  0  0
    3.2417   -0.0125    0.0000 N   0  0  0  0  0  0  0  0  0  0  0  0
  2  1  1  0
  3  5  1  0
  4  1  1  0
  5  1  2  0
  6  4  1  0
  7  2  2  0
  8  2  1  0
  9  8  1  0
  3  6  2  0
M  END

> <chembl_id>
CHEMBL331617

> <chembl_pref_name>
None

$$$$

     RDKit          2D

  6  6  0  0  0  0  0  0  0  0999 V2000
   -0.3179   -3.1751    0.0000 S   0  0  0  0  0  0  0  0  0  0  0  0
    0.0946   -1.0806    0.0000 O   0  0  0  0  0  0  0  0  0  0  0  0
   -0.5729   -2.3905    0.0000 N   0  0  0  0  0  0  0  0  0  0  0  0
    0.0946   -1.9056    0.0000 C   0  0  0  0  0  0  0  0  0  0  0  0
    0.7620   -2.3905    0.0000 C   0  0  0  0  0  0  0  0  0  0  0  0
    0.5071   -3.1751    0.0000 C   0  0  0  0  0  0  0  0  0  0  0  0
  1  3  1  0
  1  6  1  0
  2  4  2  0
  3  4  1  0
  4  5  1  0
  5  6  2  0
M  END

> <chembl_id>
CHEMBL1974422

> <chembl_pref_name>
None

$$$$

     RDKit          2D

  9  9  0  0  0  0  0  0  0  0999 V2000
    2.0000   -4.5292    0.0000 N   0  0  0  0  0  0  0  0  0  0  0  0
    2.7167   -4.9417    0.0000 C   0  0  0  0  0  0  0  0  0  0  0  0
    2.0000   -3.7042    0.0000 C   0  0  0  0  0  0  0  0  0  0  0  0
    1.2792   -4.9417    0.0000 C   0  0  0  0  0  0  0  0  0  0  0  0
    4.1417   -4.9500    0.0000 Cl  0  0  0  0  0  0  0  0  0  0  0  0
    3.4292   -4.5292    0.0000 C   0  0  0  0  0  0  0  0  0  0  0  0
    2.7125   -5.7667    0.0000 C   0  0  0  0  0  0  0  0  0  0  0  0
    1.2792   -5.7625    0.0000 C   0  0  0  0  0  0  0  0  0  0  0  0
    1.9917   -6.1792    0.0000 C   0  0  0  0  0  0  0  0  0  0  0  0
  2  1  2  0
  3  1  1  0
  4  1  1  0
  5  6  1  0
  6  2  1  0
  7  2  1  0
  8  4  2  0
  9  8  1  0
  7  9  2  0
M  CHG  1   1   1
M  END

> <chembl_id>
CHEMBL1183030

> <chembl_pref_name>
None

$$$$

     RDKit          2D

  9  9  0  0  0  0  0  0  0  0999 V2000
   -1.3038   -0.6879    0.0000 S   0  0  0  0  0  0  0  0  0  0  0  0
   -0.6363   -1.9978    0.0000 N   0  0  0  0  0  0  0  0  0  0  0  0
   -1.9712   -1.9978    0.0000 N   0  0  0  0  0  0  0  0  0  0  0  0
   -2.2012   -3.4499    0.0000 N   0  0  0  0  0  0  0  0  0  0  0  0
    0.0786   -4.1173    0.0000 N   0  0  0  0  0  0  0  0  0  0  0  0
   -0.8913   -2.7825    0.0000 C   0  0  0  0  0  0  0  0  0  0  0  0
   -1.7163   -2.7825    0.0000 C   0  0  0  0  0  0  0  0  0  0  0  0
   -1.3038   -1.5129    0.0000 C   0  0  0  0  0  0  0  0  0  0  0  0
   -0.4063   -3.4499    0.0000 C   0  0  0  0  0  0  0  0  0  0  0  0
  1  8  2  0
  2  6  1  0
  2  8  1  0
  3  7  1  0
  3  8  1  0
  4  7  1  0
  5  9  3  0
  6  7  2  0
  6  9  1  0
M  END

> <chembl_id>
CHEMBL1980273

> <chembl_pref_name>
None

$$$$

     RDKit          2D

 10 10  0  0  0  0  0  0  0  0999 V2000
   11.5788   -8.7636    0.0000 N   0  0  0  0  0  0  0  0  0  0  0  0
   10.8643   -8.3511    0.0000 C   0  0  0  0  0  0  0  0  0  0  0  0
   10.8643   -7.5261    0.0000 O   0  0  0  0  0  0  0  0  0  0  0  0
   10.1498   -8.7636    0.0000 N   0  0  0  0  0  0  0  0  0  0  0  0
   11.5788   -9.5886    0.0000 C   0  0  0  0  0  0  0  0  0  0  0  0
   12.2933  -10.0011    0.0000 C   0  0  0  0  0  0  0  0  0  0  0  0
   12.2933  -10.8261    0.0000 C   0  0  0  0  0  0  0  0  0  0  0  0
   11.5788  -11.2386    0.0000 C   0  0  0  0  0  0  0  0  0  0  0  0
   10.8643  -10.8261    0.0000 C   0  0  0  0  0  0  0  0  0  0  0  0
   10.8643  -10.0011    0.0000 C   0  0  0  0  0  0  0  0  0  0  0  0
  1  2  1  0
  2  3  2  0
  2  4  1  0
  5  6  1  0
  6  7  2  0
  7  8  1  0
  8  9  2  0
  9 10  1  0
  5 10  2  0
  1  5  1  0
M  END

> <chembl_id>
CHEMBL168445

> <chembl_pref_name>
PHENYLUREA

$$$$

     RDKit          2D

 10 10  0  0  0  0  0  0  0  0999 V2000
   11.1393   -7.1769    0.0000 C   0  0  0  0  0  0  0  0  0  0  0  0
   11.9565   -7.1773    0.0000 C   0  0  0  0  0  0  0  0  0  0  0  0
   12.2109   -6.4006    0.0000 N   0  0  0  0  0  0  0  0  0  0  0  0
   11.5480   -5.9184    0.0000 N   0  0  0  0  0  0  0  0  0  0  0  0
   10.8892   -6.4006    0.0000 C   0  0  0  0  0  0  0  0  0  0  0  0
   11.5467   -5.1013    0.0000 O   0  0  0  0  0  0  0  0  0  0  0  0
   10.7213   -7.8791    0.0000 C   0  0  0  0  0  0  0  0  0  0  0  0
    9.9041   -7.8681    0.0000 N   0  0  0  0  0  0  0  0  0  0  0  0
   12.4360   -7.8391    0.0000 C   0  0  0  0  0  0  0  0  0  0  0  0
   12.1025   -8.5852    0.0000 C   0  0  0  0  0  0  0  0  0  0  0  0
  1  2  1  0
  2  3  2  0
  3  4  1  0
  4  5  1  0
  5  1  2  0
  4  6  1  0
  1  7  1  0
  7  8  1  0
  2  9  1  0
  9 10  1  0
M  END

> <chembl_id>
CHEMBL2315220

> <chembl_pref_name>
None

$$$$

     RDKit          2D

  9  9  0  0  0  0  0  0  0  0999 V2000
    2.8781   -6.7310    0.0000 N   0  0  0  0  0  0  0  0  0  0  0  0
    3.5867   -6.3193    0.0000 C   0  0  0  0  0  0  0  0  0  0  0  0
    4.3059   -6.7420    0.0000 N   0  0  0  0  0  0  0  0  0  0  0  0
    2.8771   -7.5581    0.0000 C   0  0  0  0  0  0  0  0  0  0  0  0
    2.1611   -6.3218    0.0000 C   0  0  0  0  0  0  0  0  0  0  0  0
    2.1617   -5.4946    0.0000 C   0  0  0  0  0  0  0  0  0  0  0  0
    2.8745   -5.0793    0.0000 C   0  0  0  0  0  0  0  0  0  0  0  0
    3.5859   -5.4911    0.0000 C   0  0  0  0  0  0  0  0  0  0  0  0
    1.4487   -6.7352    0.0000 F   0  0  0  0  0  0  0  0  0  0  0  0
  1  2  1  0
  2  3  2  0
  1  4  1  0
  1  5  1  0
  5  6  2  0
  6  7  1  0
  7  8  2  0
  8  2  1  0
  5  9  1  0
M  END

> <chembl_id>
CHEMBL3546276

> <chembl_pref_name>
None

$$$$

     RDKit          2D

 10 10  0  0  0  0  0  0  0  0999 V2000
    1.2990   -0.7500    0.0000 N   0  0  0  0  0  0  0  0  0  0  0  0
    1.2990    0.7500    0.0000 C   0  0  0  0  0  0  0  0  0  0  0  0
    0.0000    1.5000    0.0000 N   0  0  0  0  0  0  0  0  0  0  0  0
   -1.2990    0.7500    0.0000 C   0  0  0  0  0  0  0  0  0  0  0  0
   -1.2990   -0.7500    0.0000 N   0  0  0  0  0  0  0  0  0  0  0  0
    0.0000   -1.5000    0.0000 C   0  0  0  0  0  0  0  0  0  0  0  0
    2.5972    1.5031    0.0000 N   0  0  0  0  0  0  0  0  0  0  0  0
   -2.3383    1.3500    0.0000 N   0  0  0  0  0  0  0  0  0  0  0  0
    0.0000   -2.7000    0.0000 N   0  0  0  0  0  0  0  0  0  0  0  0
    2.5955    2.7031    0.0000 C   0  0  0  0  0  0  0  0  0  0  0  0
  1  2  1  0
  2  3  2  0
  3  4  1  0
  4  5  2  0
  5  6  1  0
  1  6  2  0
  2  7  1  0
  4  8  1  0
  6  9  1  0
  7 10  1  0
M  END

> <chembl_id>
CHEMBL3544898

> <chembl_pref_name>
None

$$$$

     RDKit          2D

 10 10  0  0  0  0  0  0  0  0999 V2000
    0.7500   -1.0323    0.0000 N   0  0  0  0  0  0  0  0  0  0  0  0
    1.2135    0.3943    0.0000 N   0  0  0  0  0  0  0  0  0  0  0  0
    0.0000    1.2760    0.0000 C   0  0  0  0  0  0  0  0  0  0  0  0
   -1.2135    0.3943    0.0000 N   0  0  0  0  0  0  0  0  0  0  0  0
   -0.7500   -1.0323    0.0000 N   0  0  0  0  0  0  0  0  0  0  0  0
   -0.0031    2.7742    0.0000 C   0  0  0  0  0  0  0  0  0  0  0  0
   -1.3040    3.5228    0.0000 C   0  0  0  0  0  0  0  0  0  0  0  0
   -1.3071    5.0236    0.0000 N   0  0  0  0  0  0  0  0  0  0  0  0
   -2.3421    2.9209    0.0000 O   0  0  0  0  0  0  0  0  0  0  0  0
   -2.3472    5.6221    0.0000 N   0  0  0  0  0  0  0  0  0  0  0  0
  1  2  1  0
  2  3  2  0
  3  4  1  0
  4  5  1  0
  5  1  2  0
  3  6  1  0
  6  7  1  0
  7  8  1  0
  7  9  2  0
  8 10  1  0
M  END

> <chembl_id>
CHEMBL3785434

> <chembl_pref_name>
None

$$$$

     RDKit          2D

  9  9  0  0  0  0  0  0  0  0999 V2000
    6.5875   -6.8042    0.0000 C   0  0  0  0  0  0  0  0  0  0  0  0
    6.8417   -6.0167    0.0000 C   0  0  0  0  0  0  0  0  0  0  0  0
    7.9250   -6.8042    0.0000 N   0  0  0  0  0  0  0  0  0  0  0  0
    7.2542   -7.2792    0.0000 O   0  0  0  0  0  0  0  0  0  0  0  0
    7.6667   -6.0167    0.0000 C   0  0  0  0  0  0  0  0  0  0  0  0
    5.8000   -7.0542    0.0000 C   0  0  0  0  0  0  0  0  0  0  0  0
    5.1875   -6.5042    0.0000 N   0  0  0  0  0  0  0  0  0  0  0  0
    8.1500   -5.3417    0.0000 O   0  0  0  0  0  0  0  0  0  0  0  0
    5.6292   -7.8667    0.0000 C   0  0  0  0  0  0  0  0  0  0  0  0
  2  1  2  0
  3  4  1  0
  4  1  1  0
  5  2  1  0
  6  1  1  0
  7  6  1  0
  8  5  1  0
  6  9  1  6
  3  5  2  0
M  END

> <chembl_id>
CHEMBL285783

> <chembl_pref_name>
None

$$$$

     RDKit          2D

 10 10  0  0  0  0  0  0  0  0999 V2000
    2.6542   -2.2167    0.0000 C   0  0  0  0  0  0  0  0  0  0  0  0
    1.7625   -1.6917    0.0000 C   0  0  0  0  0  0  0  0  0  0  0  0
    4.4542   -2.2042    0.0000 O   0  0  0  0  0  0  0  0  0  0  0  0
    2.6542   -0.1292    0.0000 O   0  0  0  0  0  0  0  0  0  0  0  0
    3.5542   -1.6917    0.0000 C   0  0  0  0  0  0  0  0  0  0  0  0
    1.7625   -0.6500    0.0000 C   0  0  0  0  0  0  0  0  0  0  0  0
    2.6542   -3.2542    0.0000 C   0  0  0  0  0  0  0  0  0  0  0  0
    0.8542   -2.2042    0.0000 C   0  0  0  0  0  0  0  0  0  0  0  0
    0.8542   -3.2625    0.0000 C   0  0  0  0  0  0  0  0  0  0  0  0
    1.7625   -3.7750    0.0000 C   0  0  0  0  0  0  0  0  0  0  0  0
  2  1  1  0
  3  5  2  0
  4  6  2  0
  5  1  1  0
  6  2  1  0
  7  1  2  0
  8  2  2  0
  9 10  2  0
 10  7  1  0
  8  9  1  0
M  END

> <chembl_id>
CHEMBL160145

> <chembl_pref_name>
ORTHO-PHTHALALDEHYDE

$$$$

     RDKit          2D

 10 10  0  0  0  0  0  0  0  0999 V2000
    2.7370   -0.5525    0.0000 C   0  0  0  0  0  0  0  0  0  0  0  0
    3.4493   -0.9693    0.0000 C   0  0  0  0  0  0  0  0  0  0  0  0
    4.1648   -0.5610    0.0000 C   0  0  0  0  0  0  0  0  0  0  0  0
    4.8770   -0.9777    0.0000 C   0  0  0  0  0  0  0  0  0  0  0  0
    4.8736   -1.8027    0.0000 C   0  0  0  0  0  0  0  0  0  0  0  0
    4.1582   -2.2110    0.0000 N   0  0  0  0  0  0  0  0  0  0  0  0
    3.4460   -1.7943    0.0000 C   0  0  0  0  0  0  0  0  0  0  0  0
    2.7403    0.2725    0.0000 O   0  0  0  0  0  0  0  0  0  0  0  0
    2.0215   -0.9608    0.0000 O   0  0  0  0  0  0  0  0  0  0  0  0
    2.0145   -1.7857    0.0000 C   0  0  0  0  0  0  0  0  0  0  0  0
  1  2  1  0
  2  3  1  0
  3  4  2  0
  4  5  1  0
  5  6  2  0
  6  7  1  0
  2  7  2  0
  1  8  2  0
  1  9  1  0
  9 10  1  0
M  END

> <chembl_id>
CHEMBL379845

> <chembl_pref_name>
METHYL NICOTINATE

$$$$

     RDKit          2D

 11 11  0  0  0  0  0  0  0  0999 V2000
   -0.1947   -1.6873    0.0000 O   0  0  0  0  0  0  0  0  0  0  0  0
   -0.1947    1.6127    0.0000 N   0  0  0  0  0  0  0  0  0  0  0  0
    1.9487   -1.2748    0.0000 N   0  0  0  0  0  0  0  0  0  0  0  0
    0.5198   -0.4498    0.0000 C   0  0  0  0  0  0  0  0  0  0  0  0
   -0.1947   -0.8623    0.0000 C   0  0  0  0  0  0  0  0  0  0  0  0
    0.5198    0.3752    0.0000 C   0  0  0  0  0  0  0  0  0  0  0  0
   -0.1947    0.7877    0.0000 C   0  0  0  0  0  0  0  0  0  0  0  0
   -0.9091   -0.4498    0.0000 C   0  0  0  0  0  0  0  0  0  0  0  0
   -0.9091    0.3752    0.0000 C   0  0  0  0  0  0  0  0  0  0  0  0
    1.2343   -0.8623    0.0000 C   0  0  0  0  0  0  0  0  0  0  0  0
    0.5198   -2.0998    0.0000 C   0  0  0  0  0  0  0  0  0  0  0  0
  1  5  1  0
  1 11  1  0
  2  7  1  0
  3 10  3  0
  4  5  1  0
  4  6  2  0
  4 10  1  0
  5  8  2  0
  6  7  1  0
  7  9  2  0
  8  9  1  0
M  END

> <chembl_id>
CHEMBL1422206

> <chembl_pref_name>
None

$$$$

     RDKit          2D

 10 10  0  0  0  0  0  0  0  0999 V2000
   10.8994   -2.4788    0.0000 C   0  0  0  0  0  0  0  0  0  0  0  0
   10.1317   -2.4788    0.0000 C   0  0  0  0  0  0  0  0  0  0  0  0
    9.7479   -3.1425    0.0000 C   0  0  0  0  0  0  0  0  0  0  0  0
   10.1317   -3.8062    0.0000 C   0  0  0  0  0  0  0  0  0  0  0  0
   10.8994   -3.8062    0.0000 C   0  0  0  0  0  0  0  0  0  0  0  0
   11.2832   -3.1425    0.0000 N   0  0  0  0  0  0  0  0  0  0  0  0
    8.9843   -3.1425    0.0000 N   0  0  0  0  0  0  0  0  0  0  0  0
   12.0499   -3.1425    0.0000 C   0  0  0  0  0  0  0  0  0  0  0  0
   12.4332   -3.8065    0.0000 C   0  0  0  0  0  0  0  0  0  0  0  0
   13.1999   -3.8065    0.0000 C   0  0  0  0  0  0  0  0  0  0  0  0
  1  2  1  0
  2  3  2  0
  3  4  1  0
  4  5  2  0
  5  6  1  0
  1  6  2  0
  3  7  1  0
  6  8  1  0
  8  9  1  0
  9 10  1  0
M  CHG  1   6   1
M  END

> <chembl_id>
CHEMBL3139796

> <chembl_pref_name>
None

$$$$

     RDKit          2D

  8  8  0  0  0  0  0  0  0  0999 V2000
   -0.6284    1.6025    0.0000 N   0  0  0  0  0  0  0  0  0  0  0  0
    0.0860    1.1900    0.0000 C   0  0  0  0  0  0  0  0  0  0  0  0
    0.0860    0.3650    0.0000 C   0  0  0  0  0  0  0  0  0  0  0  0
    0.8005   -0.0475    0.0000 C   0  0  0  0  0  0  0  0  0  0  0  0
    0.8005   -0.8725    0.0000 C   0  0  0  0  0  0  0  0  0  0  0  0
    0.0860   -1.2850    0.0000 C   0  0  0  0  0  0  0  0  0  0  0  0
   -0.6284   -0.8725    0.0000 C   0  0  0  0  0  0  0  0  0  0  0  0
   -0.6284   -0.0475    0.0000 N   0  0  0  0  0  0  0  0  0  0  0  0
  2  1  1  0
  3  2  1  0
  3  4  1  0
  3  8  2  0
  4  5  2  0
  5  6  1  0
  6  7  2  0
  7  8  1  0
M  END

> <chembl_id>
CHEMBL32189

> <chembl_pref_name>
None

$$$$

     RDKit          2D

 10 10  0  0  0  0  0  0  0  0999 V2000
    2.3383   -1.3500    0.0000 O   0  0  0  0  0  0  0  0  0  0  0  0
    1.2990   -0.7500    0.0000 C   0  0  0  0  0  0  0  0  0  0  0  0
    1.2990    0.7500    0.0000 C   0  0  0  0  0  0  0  0  0  0  0  0
    0.0000    1.5000    0.0000 C   0  0  0  0  0  0  0  0  0  0  0  0
   -1.2990    0.7500    0.0000 C   0  0  0  0  0  0  0  0  0  0  0  0
   -1.2990   -0.7500    0.0000 C   0  0  0  0  0  0  0  0  0  0  0  0
   -2.6003   -1.4978    0.0000 C   0  0  0  0  0  0  0  0  0  0  0  0
   -3.6387   -0.8963    0.0000 O   0  0  0  0  0  0  0  0  0  0  0  0
    0.0000   -1.5000    0.0000 C   0  0  0  0  0  0  0  0  0  0  0  0
    0.0000   -2.7000    0.0000 O   0  0  0  0  0  0  0  0  0  0  0  0
  1  2  1  0
  2  3  2  0
  3  4  1  0
  4  5  2  0
  5  6  1  0
  6  7  1  0
  7  8  2  0
  6  9  2  0
  9  2  1  0
  9 10  1  0
M  END

> <chembl_id>
CHEMBL491995

> <chembl_pref_name>
None

$$$$

     RDKit          2D

  9  9  0  0  0  0  0  0  0  0999 V2000
   -1.9627    1.5575    0.0000 C   0  0  0  0  0  0  0  0  0  0  0  0
   -1.9639    0.7306    0.0000 C   0  0  0  0  0  0  0  0  0  0  0  0
   -1.2496    0.3179    0.0000 C   0  0  0  0  0  0  0  0  0  0  0  0
   -0.5335    0.7311    0.0000 C   0  0  0  0  0  0  0  0  0  0  0  0
   -0.5364    1.5611    0.0000 C   0  0  0  0  0  0  0  0  0  0  0  0
   -1.2514    1.9699    0.0000 C   0  0  0  0  0  0  0  0  0  0  0  0
    0.1761    1.9760    0.0000 C   0  0  0  0  0  0  0  0  0  0  0  0
    0.8917    1.5665    0.0000 O   0  0  0  0  0  0  0  0  0  0  0  0
    0.1730    2.8006    0.0000 S   0  0  0  0  0  0  0  0  0  0  0  0
  4  5  1  0
  2  3  1  0
  5  6  2  0
  6  1  1  0
  1  2  2  0
  5  7  1  0
  3  4  2  0
  7  8  1  0
  7  9  2  0
M  END

> <chembl_id>
CHEMBL1955873

> <chembl_pref_name>
THIOBENZOIC ACID

$$$$

     RDKit          2D

 11 11  0  0  0  0  0  0  0  0999 V2000
    0.9880    0.0855    0.0000 O   0  0  0  0  0  0  0  0  0  0  0  0
   -0.3469    0.0855    0.0000 N   0  0  0  0  0  0  0  0  0  0  0  0
    1.2179   -1.3665    0.0000 N   0  0  0  0  0  0  0  0  0  0  0  0
   -1.0618   -2.0340    0.0000 N   0  0  0  0  0  0  0  0  0  0  0  0
   -1.1084    2.2204    0.0000 N   0  0  0  0  0  0  0  0  0  0  0  0
   -0.0920   -0.6991    0.0000 C   0  0  0  0  0  0  0  0  0  0  0  0
    0.7330   -0.6991    0.0000 C   0  0  0  0  0  0  0  0  0  0  0  0
    0.3205    0.5704    0.0000 C   0  0  0  0  0  0  0  0  0  0  0  0
   -0.5769   -1.3665    0.0000 C   0  0  0  0  0  0  0  0  0  0  0  0
    0.3205    1.3954    0.0000 C   0  0  0  0  0  0  0  0  0  0  0  0
   -0.3940    1.8079    0.0000 C   0  0  0  0  0  0  0  0  0  0  0  0
  1  7  1  0
  1  8  1  0
  2  6  1  0
  2  8  2  0
  3  7  1  0
  4  9  3  0
  5 11  3  0
  6  7  2  0
  6  9  1  0
  8 10  1  0
 10 11  1  0
M  END

> <chembl_id>
CHEMBL1973246

> <chembl_pref_name>
None

$$$$

     RDKit          2D

 10 10  0  0  0  0  0  0  0  0999 V2000
    2.0459   -2.5098    0.0000 N   0  0  0  0  0  0  0  0  0  0  0  0
   -0.0090   -1.1976    0.0000 N   0  0  0  0  0  0  0  0  0  0  0  0
    2.1209   -0.8396    0.0000 C   0  0  0  0  0  0  0  0  0  0  0  0
    1.4393   -0.4036    0.0000 C   0  0  0  0  0  0  0  0  0  0  0  0
    2.8643   -0.4968    0.0000 C   0  0  0  0  0  0  0  0  0  0  0  0
    1.4484    0.4088    0.0000 C   0  0  0  0  0  0  0  0  0  0  0  0
    2.0831   -1.6811    0.0000 C   0  0  0  0  0  0  0  0  0  0  0  0
    0.7105   -0.8031    0.0000 C   0  0  0  0  0  0  0  0  0  0  0  0
    2.8807    0.3482    0.0000 C   0  0  0  0  0  0  0  0  0  0  0  0
    2.1991    0.7842    0.0000 C   0  0  0  0  0  0  0  0  0  0  0  0
  1  7  3  0
  2  8  3  0
  3  4  1  0
  3  5  2  0
  3  7  1  0
  4  6  2  0
  4  8  1  0
  5  9  1  0
  6 10  1  0
  9 10  2  0
M  END

> <chembl_id>
CHEMBL3185350

> <chembl_pref_name>
None

$$$$

     RDKit          2D

  8  8  0  0  0  0  0  0  0  0999 V2000
    7.1437  -13.3022    0.0000 S   0  0  0  0  0  0  0  0  0  0  0  0
    7.8153  -12.8244    0.0000 C   0  0  0  0  0  0  0  0  0  0  0  0
    7.5705  -12.0361    0.0000 N   0  0  0  0  0  0  0  0  0  0  0  0
    6.7430  -12.0275    0.0000 N   0  0  0  0  0  0  0  0  0  0  0  0
    6.4833  -12.8097    0.0000 C   0  0  0  0  0  0  0  0  0  0  0  0
    5.6963  -13.0572    0.0000 C   0  0  0  0  0  0  0  0  0  0  0  0
    5.0885  -12.4994    0.0000 C   0  0  0  0  0  0  0  0  0  0  0  0
    8.5969  -13.0884    0.0000 S   0  0  0  0  0  0  0  0  0  0  0  0
  3  4  1  0
  4  5  2  0
  5  1  1  0
  1  2  1  0
  5  6  1  0
  6  7  1  0
  2  3  2  0
  2  8  1  0
M  END

> <chembl_id>
CHEMBL567156

> <chembl_pref_name>
None

$$$$

     RDKit          2D

  8  8  0  0  0  0  0  0  0  0999 V2000
    0.9655    0.3048    0.0000 C   0  0  0  0  0  0  0  0  0  0  0  0
    0.9655   -0.5202    0.0000 C   0  0  0  0  0  0  0  0  0  0  0  0
    0.2511    0.7173    0.0000 C   0  0  0  0  0  0  0  0  0  0  0  0
    0.2511   -0.9327    0.0000 C   0  0  0  0  0  0  0  0  0  0  0  0
   -0.4634    0.3048    0.0000 C   0  0  0  0  0  0  0  0  0  0  0  0
   -0.4634   -0.5202    0.0000 C   0  0  0  0  0  0  0  0  0  0  0  0
   -1.1779   -0.9327    0.0000 O   0  0  0  0  0  0  0  0  0  0  0  0
    0.2511    1.5423    0.0000 Cl  0  0  0  0  0  0  0  0  0  0  0  0
  1  2  2  0
  3  1  1  0
  2  4  1  0
  5  3  2  0
  3  8  1  0
  6  4  2  0
  6  5  1  0
  6  7  1  0
M  END

> <chembl_id>
CHEMBL41172

> <chembl_pref_name>
None

$$$$

     RDKit          2D

  9  9  0  0  0  0  0  0  0  0999 V2000
    2.4468    2.5296    0.0000 N   0  0  0  0  0  0  0  0  0  0  0  0
    1.3668    1.7450    0.0000 N   0  0  0  0  0  0  0  0  0  0  0  0
    1.1119    2.5296    0.0000 N   0  0  0  0  0  0  0  0  0  0  0  0
    2.0056   -0.4298    0.0000 N   0  0  0  0  0  0  0  0  0  0  0  0
    2.1918    1.7450    0.0000 C   0  0  0  0  0  0  0  0  0  0  0  0
    1.7793    3.0145    0.0000 C   0  0  0  0  0  0  0  0  0  0  0  0
    2.6767    1.0775    0.0000 C   0  0  0  0  0  0  0  0  0  0  0  0
    1.7793    3.8395    0.0000 C   0  0  0  0  0  0  0  0  0  0  0  0
    2.3412    0.3238    0.0000 C   0  0  0  0  0  0  0  0  0  0  0  0
  1  5  2  0
  1  6  1  0
  2  3  1  0
  2  5  1  0
  3  6  2  0
  4  9  3  0
  5  7  1  0
  6  8  1  0
  7  9  1  0
M  END

> <chembl_id>
CHEMBL1977321

> <chembl_pref_name>
None

$$$$

     RDKit          2D

  8  8  0  0  0  0  0  0  0  0999 V2000
   -1.9083    0.1250    0.0000 N   0  0  0  0  0  0  0  0  0  0  0  0
   -1.3333   -0.0542    0.0000 C   0  0  0  0  0  0  0  0  0  0  0  0
   -1.2083   -0.6417    0.0000 C   0  0  0  0  0  0  0  0  0  0  0  0
   -1.7208   -0.9417    0.0000 C   0  0  0  0  0  0  0  0  0  0  0  0
   -0.6833   -0.9417    0.0000 C   0  0  0  0  0  0  0  0  0  0  0  0
   -0.6833   -1.5417    0.0000 C   0  0  0  0  0  0  0  0  0  0  0  0
   -1.7208   -1.5417    0.0000 C   0  0  0  0  0  0  0  0  0  0  0  0
   -1.2083   -1.8417    0.0000 C   0  0  0  0  0  0  0  0  0  0  0  0
  2  1  1  0
  3  2  1  0
  4  3  1  0
  5  3  2  0
  6  5  1  0
  7  4  2  0
  8  6  2  0
  7  8  1  0
M  END

> <chembl_id>
CHEMBL522

> <chembl_pref_name>
BENZYLAMINE

$$$$

     RDKit          2D

  9  8  0  0  0  0  0  0  0  0999 V2000
    2.8596   -1.6500    0.0000 N   0  0  0  0  0  0  0  0  0  0  0  0
    2.1447   -1.2382    0.0000 C   0  0  0  0  0  0  0  0  0  0  0  0
    0.7149   -1.2382    0.0000 C   0  0  0  0  0  0  0  0  0  0  0  0
    1.4298   -1.6500    0.0000 C   0  0  0  0  0  0  0  0  0  0  0  0
    2.1447   -0.4118    0.0000 C   0  0  0  0  0  0  0  0  0  0  0  0
    0.7149   -0.4118    0.0000 C   0  0  0  0  0  0  0  0  0  0  0  0
    1.4298    0.0000    0.0000 C   0  0  0  0  0  0  0  0  0  0  0  0
    0.0000   -1.6500    0.0000 C   0  0  0  0  0  0  0  0  0  0  0  0
    1.4212   -2.1190    0.0000 Cl  0  0  0  0  0  0  0  0  0  0  0  0
  1  2  1  0
  2  4  1  0
  2  5  2  0
  3  4  2  0
  3  6  1  0
  3  8  1  0
  5  7  1  0
  6  7  2  0
M  END

> <chembl_id>
CHEMBL3188175

> <chembl_pref_name>
None

$$$$

     RDKit          2D

 11 11  0  0  0  0  0  0  0  0999 V2000
    1.9792   -0.4167    0.0000 C   0  0  0  0  0  0  0  0  0  0  0  0
    1.2667   -0.8375    0.0000 C   0  0  0  0  0  0  0  0  0  0  0  0
    1.9750    0.4083    0.0000 C   0  0  0  0  0  0  0  0  0  0  0  0
    1.2667   -1.6667    0.0000 C   0  0  0  0  0  0  0  0  0  0  0  0
    0.5500   -0.4250    0.0000 C   0  0  0  0  0  0  0  0  0  0  0  0
   -0.1625   -1.6667    0.0000 C   0  0  0  0  0  0  0  0  0  0  0  0
    0.5500   -2.0792    0.0000 C   0  0  0  0  0  0  0  0  0  0  0  0
   -0.1625   -0.8375    0.0000 C   0  0  0  0  0  0  0  0  0  0  0  0
    2.6917   -1.6542    0.0000 N   0  0  0  0  0  0  0  0  0  0  0  0
    2.6917   -0.8292    0.0000 C   0  0  0  0  0  0  0  0  0  0  0  0
   -0.8750   -2.0750    0.0000 O   0  0  0  0  0  0  0  0  0  0  0  0
  2  1  1  0
  3  1  2  0
  4  2  1  0
  5  2  2  0
  6  8  2  0
  7  4  2  0
  8  5  1  0
  9 10  1  0
 10  1  1  0
 11  6  1  0
  7  6  1  0
M  END

> <chembl_id>
CHEMBL330118

> <chembl_pref_name>
None

$$$$

     RDKit          2D

  8  8  0  0  0  0  0  0  0  0999 V2000
    0.6252    1.5984    0.0000 Cl  0  0  0  0  0  0  0  0  0  0  0  0
   -0.8038   -0.0516    0.0000 N   0  0  0  0  0  0  0  0  0  0  0  0
   -0.0893    0.3609    0.0000 C   0  0  0  0  0  0  0  0  0  0  0  0
    0.6252   -0.0516    0.0000 C   0  0  0  0  0  0  0  0  0  0  0  0
   -0.0893    1.1859    0.0000 C   0  0  0  0  0  0  0  0  0  0  0  0
   -0.8038   -0.8766    0.0000 C   0  0  0  0  0  0  0  0  0  0  0  0
    0.6252   -0.8766    0.0000 C   0  0  0  0  0  0  0  0  0  0  0  0
   -0.0893   -1.2891    0.0000 C   0  0  0  0  0  0  0  0  0  0  0  0
  1  5  1  0
  2  3  2  0
  2  6  1  0
  3  4  1  0
  3  5  1  0
  4  7  2  0
  6  8  2  0
  7  8  1  0
M  END

> <chembl_id>
CHEMBL1620152

> <chembl_pref_name>
None

$$$$

     RDKit          2D

  7  7  0  0  0  0  0  0  0  0999 V2000
    3.2267    0.3927    0.0000 O   0  0  0  0  0  0  0  0  0  0  0  0
    2.3292   -2.3693    0.0000 O   0  0  0  0  0  0  0  0  0  0  0  0
    3.8941   -0.9172    0.0000 N   0  0  0  0  0  0  0  0  0  0  0  0
    3.6392   -1.7019    0.0000 N   0  0  0  0  0  0  0  0  0  0  0  0
    2.5592   -0.9172    0.0000 N   0  0  0  0  0  0  0  0  0  0  0  0
    2.8142   -1.7019    0.0000 C   0  0  0  0  0  0  0  0  0  0  0  0
    3.2267   -0.4323    0.0000 C   0  0  0  0  0  0  0  0  0  0  0  0
  1  7  2  0
  2  6  2  0
  3  4  1  0
  3  7  1  0
  4  6  1  0
  5  6  1  0
  5  7  1  0
M  END

> <chembl_id>
CHEMBL1996517

> <chembl_pref_name>
None

$$$$

     RDKit          2D

 11 12  0  0  0  0  0  0  0  0999 V2000
    0.2917   -0.7475    0.0000 C   0  0  0  0  0  0  0  0  0  0  0  0
    0.2917    0.7475    0.0000 C   0  0  0  0  0  0  0  0  0  0  0  0
    1.7138   -1.2033    0.0000 C   0  0  0  0  0  0  0  0  0  0  0  0
   -1.0028   -1.5132    0.0000 C   0  0  0  0  0  0  0  0  0  0  0  0
    1.7138    1.2033    0.0000 C   0  0  0  0  0  0  0  0  0  0  0  0
    2.5889    0.0182    0.0000 C   0  0  0  0  0  0  0  0  0  0  0  0
    2.0907   -2.3426    0.0000 N   0  0  0  0  0  0  0  0  0  0  0  0
   -0.9991   -2.7132    0.0000 O   0  0  0  0  0  0  0  0  0  0  0  0
   -2.3155    0.7475    0.0000 C   0  0  0  0  0  0  0  0  0  0  0  0
   -1.0028    1.5132    0.0000 C   0  0  0  0  0  0  0  0  0  0  0  0
   -2.3155   -0.7475    0.0000 C   0  0  0  0  0  0  0  0  0  0  0  0
  1  2  1  0
  1  3  1  0
  1  4  2  0
  2  5  1  0
  3  6  1  0
  5  6  1  0
  3  7  1  0
  4  8  1  0
  2 10  2  0
  9 10  1  0
  4 11  1  0
  9 11  2  0
M  END

> <chembl_id>
CHEMBL1189387

> <chembl_pref_name>
None

$$$$

     RDKit          2D

 10 11  0  0  0  0  0  0  0  0999 V2000
    1.9141   -0.0393    0.0000 C   0  0  0  0  0  0  0  0  0  0  0  0
    1.3287    0.5421    0.0000 C   0  0  0  0  0  0  0  0  0  0  0  0
    0.7474   -0.0433    0.0000 C   0  0  0  0  0  0  0  0  0  0  0  0
    1.3258    1.3641    0.0000 O   0  0  0  0  0  0  0  0  0  0  0  0
    2.0363    1.7778    0.0000 C   0  0  0  0  0  0  0  0  0  0  0  0
    2.7865    1.4461    0.0000 N   0  0  0  0  0  0  0  0  0  0  0  0
    3.3343    2.0591    0.0000 N   0  0  0  0  0  0  0  0  0  0  0  0
    2.9208    2.7696    0.0000 N   0  0  0  0  0  0  0  0  0  0  0  0
    2.1173    2.5957    0.0000 N   0  0  0  0  0  0  0  0  0  0  0  0
    1.3328   -0.6247    0.0000 N   0  0  0  0  0  0  0  0  0  0  0  0
  2  4  1  0
 10  1  1  0
  4  5  1  0
  5  6  1  0
  1  2  1  0
  2  3  1  0
  3 10  1  0
  6  7  1  0
  7  8  2  0
  8  9  1  0
  9  5  2  0
M  END

> <chembl_id>
CHEMBL1199876

> <chembl_pref_name>
None

$$$$

     RDKit          2D

 10 11  0  0  0  0  0  0  0  0999 V2000
    0.2917    0.7475    0.0000 C   0  0  0  0  0  0  0  0  0  0  0  0
    1.7138   -1.2033    0.0000 N   0  0  0  0  0  0  0  0  0  0  0  0
    0.2917   -0.7475    0.0000 C   0  0  0  0  0  0  0  0  0  0  0  0
    2.5889    0.0182    0.0000 N   0  0  0  0  0  0  0  0  0  0  0  0
    1.7138    1.2033    0.0000 C   0  0  0  0  0  0  0  0  0  0  0  0
   -1.0028    1.5132    0.0000 C   0  0  0  0  0  0  0  0  0  0  0  0
   -1.0028   -1.5132    0.0000 C   0  0  0  0  0  0  0  0  0  0  0  0
   -2.3155    0.7475    0.0000 C   0  0  0  0  0  0  0  0  0  0  0  0
   -3.3560    1.3452    0.0000 N   0  0  0  0  0  0  0  0  0  0  0  0
   -2.3155   -0.7475    0.0000 C   0  0  0  0  0  0  0  0  0  0  0  0
  1  3  1  0
  2  3  2  0
  2  4  1  0
  1  5  2  0
  4  5  1  0
  1  6  1  0
  3  7  1  0
  6  8  1  0
  8  9  1  0
  7 10  1  0
  8 10  1  0
M  END

> <chembl_id>
CHEMBL1193452

> <chembl_pref_name>
None

$$$$

     RDKit          2D

 10 10  0  0  0  0  0  0  0  0999 V2000
    3.4563    0.6573    0.0000 N   0  0  0  0  0  0  0  0  0  0  0  0
    2.3764   -0.1274    0.0000 N   0  0  0  0  0  0  0  0  0  0  0  0
    2.1214    0.6573    0.0000 N   0  0  0  0  0  0  0  0  0  0  0  0
    2.7889    1.9672    0.0000 N   0  0  0  0  0  0  0  0  0  0  0  0
    4.9917   -1.3760    0.0000 N   0  0  0  0  0  0  0  0  0  0  0  0
    3.2014   -0.1274    0.0000 C   0  0  0  0  0  0  0  0  0  0  0  0
    2.7889    1.1422    0.0000 C   0  0  0  0  0  0  0  0  0  0  0  0
    3.6863   -0.7948    0.0000 C   0  0  0  0  0  0  0  0  0  0  0  0
    4.5068   -0.7086    0.0000 C   0  0  0  0  0  0  0  0  0  0  0  0
    5.8122   -1.2898    0.0000 C   0  0  0  0  0  0  0  0  0  0  0  0
  1  6  1  0
  1  7  2  0
  2  3  1  0
  2  6  2  0
  3  7  1  0
  4  7  1  0
  5  9  1  0
  5 10  1  0
  6  8  1  0
  8  9  1  0
M  END

> <chembl_id>
CHEMBL1624638

> <chembl_pref_name>
None

$$$$

     RDKit          2D

  8  8  0  0  0  0  0  0  0  0999 V2000
    0.0000   -0.7160    0.0000 Cl  0  0  0  0  0  0  0  0  0  0  0  0
    3.2999   -0.7160    0.0000 O   0  0  0  0  0  0  0  0  0  0  0  0
    2.4749   -0.7160    0.0000 N   0  0  0  0  0  0  0  0  0  0  0  0
    0.8249   -0.7160    0.0000 C   0  0  0  0  0  0  0  0  0  0  0  0
    2.0558   -1.4322    0.0000 C   0  0  0  0  0  0  0  0  0  0  0  0
    2.0558    0.0000    0.0000 C   0  0  0  0  0  0  0  0  0  0  0  0
    1.2308   -1.4322    0.0000 C   0  0  0  0  0  0  0  0  0  0  0  0
    1.2308    0.0000    0.0000 C   0  0  0  0  0  0  0  0  0  0  0  0
  1  4  1  0
  2  3  1  0
  3  5  2  0
  3  6  1  0
  4  7  2  0
  4  8  1  0
  5  7  1  0
  6  8  2  0
M  CHG  2   2  -1   3   1
M  END

> <chembl_id>
CHEMBL3186776

> <chembl_pref_name>
None

$$$$

     RDKit          2D

 10 10  0  0  0  0  0  0  0  0999 V2000
    3.9535    0.9932    0.0000 O   0  0  0  0  0  0  0  0  0  0  0  0
    2.8736    0.2086    0.0000 N   0  0  0  0  0  0  0  0  0  0  0  0
    3.6986    0.2086    0.0000 N   0  0  0  0  0  0  0  0  0  0  0  0
    3.2861    2.3031    0.0000 N   0  0  0  0  0  0  0  0  0  0  0  0
    3.2861    1.4781    0.0000 C   0  0  0  0  0  0  0  0  0  0  0  0
    2.6186    0.9932    0.0000 C   0  0  0  0  0  0  0  0  0  0  0  0
    2.3887   -0.4588    0.0000 C   0  0  0  0  0  0  0  0  0  0  0  0
    2.7242   -1.2125    0.0000 C   0  0  0  0  0  0  0  0  0  0  0  0
    2.2393   -1.8800    0.0000 C   0  0  0  0  0  0  0  0  0  0  0  0
    2.5748   -2.6336    0.0000 C   0  0  0  0  0  0  0  0  0  0  0  0
  1  3  1  0
  1  5  1  0
  2  3  2  0
  2  6  1  0
  2  7  1  0
  4  5  1  0
  5  6  2  0
  7  8  1  0
  8  9  1  0
  9 10  1  0
M  CHG  2   2   1   4  -1
M  END

> <chembl_id>
CHEMBL2219670

> <chembl_pref_name>
None

$$$$

     RDKit          2D

 10 10  0  0  0  0  0  0  0  0999 V2000
    1.6664   -0.1218    0.0000 O   0  0  0  0  0  0  0  0  0  0  0  0
    0.2143    0.1081    0.0000 N   0  0  0  0  0  0  0  0  0  0  0  0
    0.6268   -1.1614    0.0000 N   0  0  0  0  0  0  0  0  0  0  0  0
   -0.1982   -1.1614    0.0000 N   0  0  0  0  0  0  0  0  0  0  0  0
    0.2143    0.9331    0.0000 N   0  0  0  0  0  0  0  0  0  0  0  0
    0.8818   -0.3768    0.0000 C   0  0  0  0  0  0  0  0  0  0  0  0
   -0.4531   -0.3768    0.0000 C   0  0  0  0  0  0  0  0  0  0  0  0
   -1.2377   -0.1218    0.0000 C   0  0  0  0  0  0  0  0  0  0  0  0
   -0.5001    1.3456    0.0000 C   0  0  0  0  0  0  0  0  0  0  0  0
   -1.2146    0.9331    0.0000 C   0  0  0  0  0  0  0  0  0  0  0  0
  1  6  2  0
  2  5  1  0
  2  6  1  0
  2  7  1  0
  3  4  1  0
  3  6  1  0
  4  7  2  0
  5  9  2  0
  7  8  1  0
  9 10  1  0
M  END

> <chembl_id>
CHEMBL1988235

> <chembl_pref_name>
None

$$$$

     RDKit          2D

  8  8  0  0  0  0  0  0  0  0999 V2000
    0.7500   -1.0323    0.0000 C   0  0  0  0  0  0  0  0  0  0  0  0
    1.2135    0.3943    0.0000 N   0  0  0  0  0  0  0  0  0  0  0  0
    0.0000    1.2760    0.0000 N   0  0  0  0  0  0  0  0  0  0  0  0
   -0.7500   -1.0323    0.0000 C   0  0  0  0  0  0  0  0  0  0  0  0
   -1.6332   -2.2426    0.0000 C   0  0  0  0  0  0  0  0  0  0  0  0
   -1.2135    0.3943    0.0000 C   0  0  0  0  0  0  0  0  0  0  0  0
   -1.1470   -3.3397    0.0000 O   0  0  0  0  0  0  0  0  0  0  0  0
   -2.8264   -2.1154    0.0000 O   0  0  0  0  0  0  0  0  0  0  0  0
  1  2  1  0
  1  4  2  0
  3  2  1  0
  6  3  2  0
  5  4  1  0
  4  6  1  0
  5  7  1  0
  5  8  2  0
M  END

> <chembl_id>
CHEMBL3544508

> <chembl_pref_name>
None

$$$$

     RDKit          2D

 10 11  0  0  0  0  0  0  0  0999 V2000
    2.1214    0.1452    0.0000 O   0  0  0  0  0  0  0  0  0  0  0  0
    4.2160   -0.2673    0.0000 N   0  0  0  0  0  0  0  0  0  0  0  0
    4.2160    0.5577    0.0000 N   0  0  0  0  0  0  0  0  0  0  0  0
    5.0006   -0.5222    0.0000 C   0  0  0  0  0  0  0  0  0  0  0  0
    3.4314   -0.5222    0.0000 C   0  0  0  0  0  0  0  0  0  0  0  0
    2.9464    0.1452    0.0000 C   0  0  0  0  0  0  0  0  0  0  0  0
    3.4314    0.8126    0.0000 C   0  0  0  0  0  0  0  0  0  0  0  0
    5.0006    0.8126    0.0000 C   0  0  0  0  0  0  0  0  0  0  0  0
    5.4855    0.1452    0.0000 C   0  0  0  0  0  0  0  0  0  0  0  0
    5.2555   -1.3069    0.0000 C   0  0  0  0  0  0  0  0  0  0  0  0
  1  6  1  0
  2  3  1  0
  2  4  1  0
  2  5  1  0
  3  7  1  0
  3  8  2  0
  4  9  2  0
  4 10  1  0
  5  6  1  0
  6  7  1  0
  8  9  1  0
M  CHG  1   3   1
M  END

> <chembl_id>
CHEMBL1622491

> <chembl_pref_name>
None

$$$$

     RDKit          2D

  8  8  0  0  0  0  0  0  0  0999 V2000
    2.3764   -1.2434    0.0000 S   0  0  0  0  0  0  0  0  0  0  0  0
    2.0744    1.2636    0.0000 O   0  0  0  0  0  0  0  0  0  0  0  0
    3.5033    1.2636    0.0000 O   0  0  0  0  0  0  0  0  0  0  0  0
    3.4563   -0.4588    0.0000 N   0  0  0  0  0  0  0  0  0  0  0  0
    2.7889    0.0261    0.0000 C   0  0  0  0  0  0  0  0  0  0  0  0
    2.7889    0.8511    0.0000 C   0  0  0  0  0  0  0  0  0  0  0  0
    2.1214   -0.4588    0.0000 C   0  0  0  0  0  0  0  0  0  0  0  0
    3.2014   -1.2434    0.0000 C   0  0  0  0  0  0  0  0  0  0  0  0
  1  7  1  0
  1  8  1  0
  2  6  2  0
  3  6  1  0
  4  5  1  0
  4  8  2  0
  5  6  1  0
  5  7  2  0
M  END

> <chembl_id>
CHEMBL1236484

> <chembl_pref_name>
None

$$$$

     RDKit          2D

 10 10  0  0  0  0  0  0  0  0999 V2000
    2.8833   -0.7177    0.0000 C   0  0  0  0  0  0  0  0  0  0  0  0
    1.2333   -0.7177    0.0000 C   0  0  0  0  0  0  0  0  0  0  0  0
    2.4749   -1.4314    0.0000 C   0  0  0  0  0  0  0  0  0  0  0  0
    1.6499   -1.4314    0.0000 C   0  0  0  0  0  0  0  0  0  0  0  0
    1.6499    0.0000    0.0000 C   0  0  0  0  0  0  0  0  0  0  0  0
    2.4749    0.0000    0.0000 C   0  0  0  0  0  0  0  0  0  0  0  0
    3.7083   -0.7177    0.0000 C   0  0  0  0  0  0  0  0  0  0  0  0
    0.4083   -0.7177    0.0000 C   0  0  0  0  0  0  0  0  0  0  0  0
    4.1249    0.0000    0.0000 C   0  0  0  0  0  0  0  0  0  0  0  0
    0.0000   -1.4314    0.0000 C   0  0  0  0  0  0  0  0  0  0  0  0
  1  3  2  0
  1  6  1  0
  1  7  1  0
  2  4  2  0
  2  5  1  0
  2  8  1  0
  3  4  1  0
  5  6  2  0
  7  9  1  0
  8 10  1  0
M  END

> <chembl_id>
CHEMBL3187283

> <chembl_pref_name>
None

$$$$

     RDKit          2D

 11 11  0  0  0  0  0  0  0  0999 V2000
    0.0000   -1.4300    0.0000 O   0  0  0  0  0  0  0  0  0  0  0  0
    2.4726   -1.4300    0.0000 C   0  0  0  0  0  0  0  0  0  0  0  0
    1.6484   -1.4300    0.0000 C   0  0  0  0  0  0  0  0  0  0  0  0
    2.8888   -0.7129    0.0000 C   0  0  0  0  0  0  0  0  0  0  0  0
    2.8888   -2.1429    0.0000 C   0  0  0  0  0  0  0  0  0  0  0  0
    1.2404   -0.7129    0.0000 C   0  0  0  0  0  0  0  0  0  0  0  0
    0.4162   -0.7129    0.0000 C   0  0  0  0  0  0  0  0  0  0  0  0
    3.7130   -0.7129    0.0000 C   0  0  0  0  0  0  0  0  0  0  0  0
    3.7130   -2.1429    0.0000 C   0  0  0  0  0  0  0  0  0  0  0  0
    4.1210   -1.4300    0.0000 C   0  0  0  0  0  0  0  0  0  0  0  0
    0.0000    0.0000    0.0000 C   0  0  0  0  0  0  0  0  0  0  0  0
  1  7  2  0
  2  3  1  0
  2  4  2  0
  2  5  1  0
  3  6  2  3
  4  8  1  0
  5  9  2  0
  6  7  1  0
  7 11  1  0
  8 10  2  0
  9 10  1  0
M  END

> <chembl_id>
CHEMBL3187978

> <chembl_pref_name>
None

$$$$

     RDKit          2D

 10 10  0  0  0  0  0  0  0  0999 V2000
    1.7042   -0.1917    0.0000 N   0  0  0  0  0  0  0  0  0  0  0  0
    1.1917   -0.5000    0.0000 C   0  0  0  0  0  0  0  0  0  0  0  0
    2.2292   -0.4917    0.0000 O   0  0  0  0  0  0  0  0  0  0  0  0
    1.7042    0.4083    0.0000 O   0  0  0  0  0  0  0  0  0  0  0  0
    0.6667   -0.2000    0.0000 C   0  0  0  0  0  0  0  0  0  0  0  0
    0.6667    0.4000    0.0000 N   0  0  0  0  0  0  0  0  0  0  0  0
    1.1917   -1.1042    0.0000 C   0  0  0  0  0  0  0  0  0  0  0  0
    0.1542   -0.5000    0.0000 C   0  0  0  0  0  0  0  0  0  0  0  0
    0.6667   -1.4042    0.0000 C   0  0  0  0  0  0  0  0  0  0  0  0
    0.1542   -1.1042    0.0000 C   0  0  0  0  0  0  0  0  0  0  0  0
  2  1  1  0
  3  1  1  0
  4  1  2  0
  5  2  2  0
  6  5  1  0
  7  2  1  0
  8  5  1  0
  9  7  2  0
 10  9  1  0
 10  8  2  0
M  CHG  2   1   1   3  -1
M  END

> <chembl_id>
CHEMBL274009

> <chembl_pref_name>
2-NITROANILINE

$$$$

     RDKit          2D

  8  8  0  0  0  0  0  0  0  0999 V2000
    2.1348   -0.0406    0.0000 S   0  0  0  0  0  0  0  0  0  0  0  0
    1.4068   -0.4397    0.0000 C   0  0  0  0  0  0  0  0  0  0  0  0
    1.4068   -1.2467    0.0000 C   0  0  0  0  0  0  0  0  0  0  0  0
    0.7088    0.0000    0.0000 C   0  0  0  0  0  0  0  0  0  0  0  0
    0.7088   -1.6864    0.0000 C   0  0  0  0  0  0  0  0  0  0  0  0
    0.0000   -0.4397    0.0000 C   0  0  0  0  0  0  0  0  0  0  0  0
    0.0000   -1.2467    0.0000 C   0  0  0  0  0  0  0  0  0  0  0  0
    2.1348   -1.6459    0.0000 C   0  0  0  0  0  0  0  0  0  0  0  0
  1  2  1  0
  2  3  1  0
  2  4  2  0
  3  5  2  0
  3  8  1  0
  4  6  1  0
  5  7  1  0
  6  7  2  0
M  END

> <chembl_id>
CHEMBL3182595

> <chembl_pref_name>
None

$$$$

     RDKit          2D

  9  9  0  0  0  0  0  0  0  0999 V2000
    1.4510   -0.2318    0.0000 O   0  0  0  0  0  0  0  0  0  0  0  0
    3.1751   -0.1842    0.0000 O   0  0  0  0  0  0  0  0  0  0  0  0
    3.1751   -1.6129    0.0000 O   0  0  0  0  0  0  0  0  0  0  0  0
    1.9368   -0.8985    0.0000 C   0  0  0  0  0  0  0  0  0  0  0  0
    0.6667   -0.4858    0.0000 C   0  0  0  0  0  0  0  0  0  0  0  0
    2.7623   -0.8985    0.0000 C   0  0  0  0  0  0  0  0  0  0  0  0
    1.4510   -1.5653    0.0000 C   0  0  0  0  0  0  0  0  0  0  0  0
    0.6667   -1.3113    0.0000 C   0  0  0  0  0  0  0  0  0  0  0  0
    0.0000    0.0000    0.0000 C   0  0  0  0  0  0  0  0  0  0  0  0
  1  4  1  0
  1  5  1  0
  2  6  2  0
  3  6  1  0
  4  6  1  0
  4  7  2  0
  5  8  2  0
  5  9  1  0
  7  8  1  0
M  END

> <chembl_id>
CHEMBL3183624

> <chembl_pref_name>
None

$$$$

     RDKit          2D

 11 11  0  0  0  0  0  0  0  0999 V2000
    4.2939   -1.2453    0.0000 O   0  0  0  0  0  0  0  0  0  0  0  0
    1.4341   -1.2453    0.0000 C   0  0  0  0  0  0  0  0  0  0  0  0
    2.1513   -1.6532    0.0000 C   0  0  0  0  0  0  0  0  0  0  0  0
    2.8684   -1.2453    0.0000 C   0  0  0  0  0  0  0  0  0  0  0  0
    0.7171   -1.6532    0.0000 C   0  0  0  0  0  0  0  0  0  0  0  0
    1.4341   -0.4165    0.0000 C   0  0  0  0  0  0  0  0  0  0  0  0
    0.0000   -1.2453    0.0000 C   0  0  0  0  0  0  0  0  0  0  0  0
    0.7171    0.0000    0.0000 C   0  0  0  0  0  0  0  0  0  0  0  0
    3.5855   -1.6532    0.0000 C   0  0  0  0  0  0  0  0  0  0  0  0
    0.0000   -0.4165    0.0000 C   0  0  0  0  0  0  0  0  0  0  0  0
    2.8684   -0.4165    0.0000 C   0  0  0  0  0  0  0  0  0  0  0  0
  1  9  2  0
  2  3  1  0
  2  5  2  0
  2  6  1  0
  3  4  2  3
  4  9  1  0
  4 11  1  0
  5  7  1  0
  6  8  2  0
  7 10  2  0
  8 10  1  0
M  END

> <chembl_id>
CHEMBL3184118

> <chembl_pref_name>
None

$$$$

     RDKit          2D

  6  6  0  0  0  0  0  0  0  0999 V2000
    0.2479    1.2428    0.0000 C   0  0  0  0  0  0  0  0  0  0  0  0
    0.2479    0.4178    0.0000 N   0  0  0  0  0  0  0  0  0  0  0  0
    0.9154   -0.0672    0.0000 C   0  0  0  0  0  0  0  0  0  0  0  0
    0.6604   -0.8518    0.0000 C   0  0  0  0  0  0  0  0  0  0  0  0
   -0.1646   -0.8518    0.0000 C   0  0  0  0  0  0  0  0  0  0  0  0
   -0.4195   -0.0672    0.0000 C   0  0  0  0  0  0  0  0  0  0  0  0
  1  2  1  0
  3  2  1  0
  6  2  1  0
  4  3  2  0
  4  5  1  0
  5  6  2  0
M  END

> <chembl_id>
CHEMBL1234459

> <chembl_pref_name>
None

$$$$

     RDKit          2D

 10 10  0  0  0  0  0  0  0  0999 V2000
    5.0972   -0.6600    0.0000 O   0  0  0  0  0  0  0  0  0  0  0  0
    4.3827    0.5775    0.0000 N   0  0  0  0  0  0  0  0  0  0  0  0
    2.9538    0.5775    0.0000 N   0  0  0  0  0  0  0  0  0  0  0  0
    3.6682   -1.4850    0.0000 N   0  0  0  0  0  0  0  0  0  0  0  0
    3.6682   -0.6600    0.0000 C   0  0  0  0  0  0  0  0  0  0  0  0
    4.3827   -0.2475    0.0000 C   0  0  0  0  0  0  0  0  0  0  0  0
    2.9538   -0.2475    0.0000 C   0  0  0  0  0  0  0  0  0  0  0  0
    3.6682    0.9900    0.0000 C   0  0  0  0  0  0  0  0  0  0  0  0
    2.2393   -0.6600    0.0000 C   0  0  0  0  0  0  0  0  0  0  0  0
    3.6682    1.8150    0.0000 C   0  0  0  0  0  0  0  0  0  0  0  0
  1  6  1  0
  2  6  2  0
  2  8  1  0
  3  7  1  0
  3  8  2  0
  4  5  1  0
  5  6  1  0
  5  7  2  0
  7  9  1  0
  8 10  1  0
M  END

> <chembl_id>
CHEMBL1625785

> <chembl_pref_name>
None

$$$$

     RDKit          2D

 11 11  0  0  0  0  0  0  0  0999 V2000
    0.7162    0.8244    0.0000 O   0  0  0  0  0  0  0  0  0  0  0  0
    2.1451   -1.6506    0.0000 C   0  0  0  0  0  0  0  0  0  0  0  0
    2.1451   -0.8256    0.0000 C   0  0  0  0  0  0  0  0  0  0  0  0
    2.8596   -2.0631    0.0000 C   0  0  0  0  0  0  0  0  0  0  0  0
    1.4307   -2.0631    0.0000 C   0  0  0  0  0  0  0  0  0  0  0  0
    1.4307   -0.4131    0.0000 C   0  0  0  0  0  0  0  0  0  0  0  0
    1.4307    0.4119    0.0000 C   0  0  0  0  0  0  0  0  0  0  0  0
    2.8596   -2.8881    0.0000 C   0  0  0  0  0  0  0  0  0  0  0  0
    1.4307   -2.8881    0.0000 C   0  0  0  0  0  0  0  0  0  0  0  0
    2.1451   -3.3006    0.0000 C   0  0  0  0  0  0  0  0  0  0  0  0
    2.1451    0.8244    0.0000 C   0  0  0  0  0  0  0  0  0  0  0  0
  1  7  2  0
  2  3  1  0
  2  4  2  0
  2  5  1  0
  3  6  1  0
  4  8  1  0
  5  9  2  0
  6  7  1  0
  7 11  1  0
  8 10  2  0
  9 10  1  0
M  END

> <chembl_id>
CHEMBL1490851

> <chembl_pref_name>
BENZYLACETONE

$$$$

     RDKit          2D

 10 10  0  0  0  0  0  0  0  0999 V2000
   -1.5874   -0.9864    0.0000 C   0  0  0  0  0  0  0  0  0  0  0  0
   -1.5874   -1.8114    0.0000 C   0  0  0  0  0  0  0  0  0  0  0  0
   -0.8730   -2.2239    0.0000 C   0  0  0  0  0  0  0  0  0  0  0  0
   -0.8730   -3.0489    0.0000 C   0  0  0  0  0  0  0  0  0  0  0  0
   -1.5874   -3.4614    0.0000 C   0  0  0  0  0  0  0  0  0  0  0  0
   -2.3019   -3.0489    0.0000 C   0  0  0  0  0  0  0  0  0  0  0  0
   -2.3019   -2.2239    0.0000 C   0  0  0  0  0  0  0  0  0  0  0  0
   -3.0164   -1.8114    0.0000 C   0  0  0  0  0  0  0  0  0  0  0  0
   -1.5874   -4.2864    0.0000 N   0  0  0  0  0  0  0  0  0  0  0  0
   -0.1585   -3.4614    0.0000 C   0  0  0  0  0  0  0  0  0  0  0  0
  1  2  1  0
  2  3  2  0
  3  4  1  0
  4  5  2  0
  5  6  1  0
  6  7  2  0
  2  7  1  0
  7  8  1  0
  5  9  1  0
  4 10  1  0
M  END

> <chembl_id>
CHEMBL541229

> <chembl_pref_name>
None

$$$$

     RDKit          2D

  8  8  0  0  0  0  0  0  0  0999 V2000
    1.6524   -2.1479    0.0000 O   0  0  0  0  0  0  0  0  0  0  0  0
    1.2436   -1.4319    0.0000 N   0  0  0  0  0  0  0  0  0  0  0  0
    1.6524   -0.7160    0.0000 C   0  0  0  0  0  0  0  0  0  0  0  0
    0.4186   -1.4319    0.0000 C   0  0  0  0  0  0  0  0  0  0  0  0
    1.2436    0.0000    0.0000 C   0  0  0  0  0  0  0  0  0  0  0  0
    0.0000   -0.7160    0.0000 C   0  0  0  0  0  0  0  0  0  0  0  0
    0.4186    0.0000    0.0000 C   0  0  0  0  0  0  0  0  0  0  0  0
    2.4774   -0.7160    0.0000 C   0  0  0  0  0  0  0  0  0  0  0  0
  1  2  1  0
  2  3  1  0
  2  4  2  0
  3  5  2  0
  3  8  1  0
  4  6  1  0
  5  7  1  0
  6  7  2  0
M  CHG  2   1  -1   2   1
M  END

> <chembl_id>
CHEMBL3186013

> <chembl_pref_name>
None

$$$$

     RDKit          2D

  9  9  0  0  0  0  0  0  0  0999 V2000
    0.0000    0.7565    0.0000 S   0  0  0  0  0  0  0  0  0  0  0  0
    0.0000    1.5815    0.0000 O   0  0  0  0  0  0  0  0  0  0  0  0
   -0.8250    0.7565    0.0000 O   0  0  0  0  0  0  0  0  0  0  0  0
    0.8250    0.7565    0.0000 O   0  0  0  0  0  0  0  0  0  0  0  0
    0.0000   -0.0685    0.0000 N   0  0  0  0  0  0  0  0  0  0  0  0
    0.4125   -1.3380    0.0000 N   0  0  0  0  0  0  0  0  0  0  0  0
    0.6674   -0.5534    0.0000 C   0  0  0  0  0  0  0  0  0  0  0  0
   -0.6674   -0.5534    0.0000 C   0  0  0  0  0  0  0  0  0  0  0  0
   -0.4125   -1.3380    0.0000 C   0  0  0  0  0  0  0  0  0  0  0  0
  1  2  2  0
  1  3  2  0
  1  4  1  0
  1  5  1  0
  5  7  1  0
  5  8  1  0
  6  7  2  0
  6  9  1  0
  8  9  2  0
M  END

> <chembl_id>
CHEMBL3546139

> <chembl_pref_name>
None

$$$$

     RDKit          2D

 10 10  0  0  0  0  0  0  0  0999 V2000
   -1.8326   -5.0040    0.0000 O   0  0  0  0  0  0  0  0  0  0  0  0
   -1.1869   -4.4907    0.0000 C   0  0  0  0  0  0  0  0  0  0  0  0
   -1.4738   -3.7172    0.0000 C   0  0  0  0  0  0  0  0  0  0  0  0
   -2.3005   -3.7527    0.0000 C   0  0  0  0  0  0  0  0  0  0  0  0
   -2.5182   -4.5474    0.0000 C   0  0  0  0  0  0  0  0  0  0  0  0
   -3.2908   -4.8365    0.0000 C   0  0  0  0  0  0  0  0  0  0  0  0
   -3.9274   -4.3119    0.0000 O   0  0  0  0  0  0  0  0  0  0  0  0
   -0.3907   -4.7109    0.0000 C   0  0  0  0  0  0  0  0  0  0  0  0
   -0.1853   -5.5099    0.0000 O   0  0  0  0  0  0  0  0  0  0  0  0
    0.1985   -4.1335    0.0000 O   0  0  0  0  0  0  0  0  0  0  0  0
  5  1  1  0
  1  2  1  0
  5  6  1  0
  6  7  1  0
  2  3  2  0
  3  4  1  0
  4  5  2  0
  8  9  1  0
  8 10  2  0
  2  8  1  0
M  END

> <chembl_id>
CHEMBL468037

> <chembl_pref_name>
SUMIKI'S ACID

$$$$

     RDKit          2D

 11 11  0  0  0  0  0  0  0  0999 V2000
    4.3827    0.9750    0.0000 O   0  0  0  0  0  0  0  0  0  0  0  0
    2.9538    1.8000    0.0000 N   0  0  0  0  0  0  0  0  0  0  0  0
    3.6682   -0.2625    0.0000 C   0  0  0  0  0  0  0  0  0  0  0  0
    3.6682    0.5625    0.0000 C   0  0  0  0  0  0  0  0  0  0  0  0
    4.3827   -0.6750    0.0000 C   0  0  0  0  0  0  0  0  0  0  0  0
    2.9538   -0.6750    0.0000 C   0  0  0  0  0  0  0  0  0  0  0  0
    2.9538    0.9750    0.0000 C   0  0  0  0  0  0  0  0  0  0  0  0
    4.3827   -1.5000    0.0000 C   0  0  0  0  0  0  0  0  0  0  0  0
    2.9538   -1.5000    0.0000 C   0  0  0  0  0  0  0  0  0  0  0  0
    3.6682   -1.9125    0.0000 C   0  0  0  0  0  0  0  0  0  0  0  0
    2.2393    2.2125    0.0000 C   0  0  0  0  0  0  0  0  0  0  0  0
  1  4  2  0
  2  7  1  0
  2 11  1  0
  3  4  1  0
  3  5  2  0
  3  6  1  0
  4  7  1  0
  5  8  1  0
  6  9  2  0
  8 10  2  0
  9 10  1  0
M  END

> <chembl_id>
CHEMBL1907015

> <chembl_pref_name>
None

$$$$

     RDKit          2D

 10 10  0  0  0  0  0  0  0  0999 V2000
    4.8997    5.1949    0.0000 C   0  0  0  0  0  0  0  0  0  0  0  0
    4.8997    6.6949    0.0000 C   0  0  0  0  0  0  0  0  0  0  0  0
    3.6006    7.4449    0.0000 C   0  0  0  0  0  0  0  0  0  0  0  0
    2.3016    6.6949    0.0000 C   0  0  0  0  0  0  0  0  0  0  0  0
    2.3016    5.1949    0.0000 C   0  0  0  0  0  0  0  0  0  0  0  0
    3.6006    4.4449    0.0000 C   0  0  0  0  0  0  0  0  0  0  0  0
    1.0026    4.4449    0.0000 C   0  0  0  0  0  0  0  0  0  0  0  0
    1.0025    2.9449    0.0000 O   0  0  0  0  0  0  0  0  0  0  0  0
   -0.2965    2.1949    0.0000 N   0  0  0  0  0  0  0  0  0  0  0  0
    6.1987    4.4449    0.0000 F   0  0  0  0  0  0  0  0  0  0  0  0
  1  2  2  0
  2  3  1  0
  3  4  2  0
  4  5  1  0
  5  6  2  0
  6  1  1  0
  5  7  1  0
  7  8  1  0
  8  9  1  0
  1 10  1  0
M  END

> <chembl_id>
CHEMBL3765977

> <chembl_pref_name>
None

$$$$

     RDKit          2D

 10 10  0  0  0  0  0  0  0  0999 V2000
    2.5951   -3.0039    0.0000 C   0  0  0  0  0  0  0  0  0  0  0  0
    2.5973   -1.5031    0.0000 N   0  0  0  0  0  0  0  0  0  0  0  0
    3.6331   -3.6060    0.0000 N   0  0  0  0  0  0  0  0  0  0  0  0
    1.2990   -0.7500    0.0000 C   0  0  0  0  0  0  0  0  0  0  0  0
    1.5548   -3.6021    0.0000 C   0  0  0  0  0  0  0  0  0  0  0  0
    1.2990    0.7500    0.0000 C   0  0  0  0  0  0  0  0  0  0  0  0
    0.0000   -1.5000    0.0000 C   0  0  0  0  0  0  0  0  0  0  0  0
   -1.2990   -0.7500    0.0000 C   0  0  0  0  0  0  0  0  0  0  0  0
    0.0000    1.5000    0.0000 C   0  0  0  0  0  0  0  0  0  0  0  0
   -1.2990    0.7500    0.0000 C   0  0  0  0  0  0  0  0  0  0  0  0
  1  2  1  0
  1  3  2  0
  2  4  1  0
  1  5  1  0
  4  6  1  0
  4  7  2  0
  7  8  1  0
  6  9  2  0
  8 10  2  0
  9 10  1  0
M  END

> <chembl_id>
CHEMBL1194869

> <chembl_pref_name>
None

$$$$

     RDKit          2D

  9  9  0  0  0  0  0  0  0  0999 V2000
    1.0375   -5.2667    0.0000 C   0  0  0  0  0  0  0  0  0  0  0  0
    1.6167   -5.4250    0.0000 C   0  0  0  0  0  0  0  0  0  0  0  0
    0.5667   -5.6417    0.0000 O   0  0  0  0  0  0  0  0  0  0  0  0
    0.8250   -4.7042    0.0000 C   0  0  0  0  0  0  0  0  0  0  0  0
    0.0667   -5.3125    0.0000 C   0  0  0  0  0  0  0  0  0  0  0  0
    0.2250   -4.7292    0.0000 C   0  0  0  0  0  0  0  0  0  0  0  0
    1.7667   -6.0042    0.0000 C   0  0  0  0  0  0  0  0  0  0  0  0
    2.0417   -5.0042    0.0000 C   0  0  0  0  0  0  0  0  0  0  0  0
    2.6167   -5.1625    0.0000 N   0  0  0  0  0  0  0  0  0  0  0  0
  2  1  1  0
  3  1  1  0
  4  1  2  0
  5  3  1  0
  6  4  1  0
  7  2  2  0
  8  2  1  0
  9  8  1  0
  6  5  2  0
M  END

> <chembl_id>
CHEMBL106238

> <chembl_pref_name>
None

$$$$

     RDKit          2D

 11 11  0  0  0  0  0  0  0  0999 V2000
    1.3917    3.4208    0.0000 C   0  0  0  0  0  0  0  0  0  0  0  0
    0.6792    3.0083    0.0000 C   0  0  0  0  0  0  0  0  0  0  0  0
    0.6792    2.1750    0.0000 C   0  0  0  0  0  0  0  0  0  0  0  0
    1.3875    4.2417    0.0000 C   0  0  0  0  0  0  0  0  0  0  0  0
   -0.0375    1.7625    0.0000 C   0  0  0  0  0  0  0  0  0  0  0  0
    2.1042    2.1875    0.0000 N   0  0  0  0  0  0  0  0  0  0  0  0
    2.1042    3.0208    0.0000 C   0  0  0  0  0  0  0  0  0  0  0  0
   -0.0458    0.9375    0.0000 O   0  0  0  0  0  0  0  0  0  0  0  0
   -0.0375    3.4208    0.0000 C   0  0  0  0  0  0  0  0  0  0  0  0
   -0.7500    3.0000    0.0000 C   0  0  0  0  0  0  0  0  0  0  0  0
   -0.7500    2.1750    0.0000 C   0  0  0  0  0  0  0  0  0  0  0  0
  2  1  1  0
  3  2  1  0
  4  1  2  0
  5  3  2  0
  6  7  1  0
  7  1  1  0
  8  5  1  0
  9  2  2  0
 10  9  1  0
 11 10  2  0
  5 11  1  0
M  END

> <chembl_id>
CHEMBL330685

> <chembl_pref_name>
None

$$$$

     RDKit          2D

 10 10  0  0  0  0  0  0  0  0999 V2000
   17.8901  -18.6592    0.0000 C   0  0  0  0  0  0  0  0  0  0  0  0
   17.8890  -19.4787    0.0000 C   0  0  0  0  0  0  0  0  0  0  0  0
   18.5970  -19.8877    0.0000 N   0  0  0  0  0  0  0  0  0  0  0  0
   19.3067  -19.4782    0.0000 C   0  0  0  0  0  0  0  0  0  0  0  0
   19.3039  -18.6556    0.0000 C   0  0  0  0  0  0  0  0  0  0  0  0
   18.5952  -18.2503    0.0000 C   0  0  0  0  0  0  0  0  0  0  0  0
   20.0150  -19.8857    0.0000 C   0  0  0  0  0  0  0  0  0  0  0  0
   20.7221  -19.4760    0.0000 O   0  0  0  0  0  0  0  0  0  0  0  0
   17.1823  -18.2507    0.0000 C   0  0  0  0  0  0  0  0  0  0  0  0
   20.0100  -18.2443    0.0000 C   0  0  0  0  0  0  0  0  0  0  0  0
  1  2  2  0
  2  3  1  0
  3  4  2  0
  4  5  1  0
  5  6  2  0
  6  1  1  0
  4  7  1  0
  7  8  1  0
  1  9  1  0
  5 10  1  0
M  END

> <chembl_id>
CHEMBL3303870

> <chembl_pref_name>
None

$$$$

     RDKit          2D

  9  9  0  0  0  0  0  0  0  0999 V2000
   29.2318  -12.1792    0.0000 S   0  0  0  0  0  0  0  0  0  0  0  0
   29.9009  -11.6969    0.0000 C   0  0  0  0  0  0  0  0  0  0  0  0
   29.6442  -10.9088    0.0000 C   0  0  0  0  0  0  0  0  0  0  0  0
   28.8194  -10.9088    0.0000 C   0  0  0  0  0  0  0  0  0  0  0  0
   28.5627  -11.6969    0.0000 C   0  0  0  0  0  0  0  0  0  0  0  0
   30.3564  -10.4923    0.0000 N   0  0  0  0  0  0  0  0  0  0  0  0
   30.3519   -9.6675    0.0000 C   0  0  0  0  0  0  0  0  0  0  0  0
   31.0637   -9.2513    0.0000 N   0  0  0  0  0  0  0  0  0  0  0  0
   29.6354   -9.2593    0.0000 N   0  0  0  0  0  0  0  0  0  0  0  0
  4  5  2  0
  2  3  2  0
  1  2  1  0
  3  4  1  0
  5  1  1  0
  3  6  1  0
  6  7  1  0
  7  8  1  0
  7  9  2  0
M  END


> <chembl_id>
CHEMBL4299982

> <chembl_pref_name>
None

$$$$

     RDKit          2D

  9  9  0  0  0  0  0  0  0  0999 V2000
    8.4083   -4.5333    0.0000 N   0  0  0  0  0  0  0  0  0  0  0  0
    9.1250   -4.1208    0.0000 N   0  0  0  0  0  0  0  0  0  0  0  0
    8.4083   -5.3583    0.0000 C   0  0  0  0  0  0  0  0  0  0  0  0
    7.6958   -5.7708    0.0000 N   0  0  0  0  0  0  0  0  0  0  0  0
    9.1250   -6.5958    0.0000 N   0  0  0  0  0  0  0  0  0  0  0  0
    9.1250   -3.2958    0.0000 O   0  0  0  0  0  0  0  0  0  0  0  0
    9.1250   -5.7708    0.0000 C   0  0  0  0  0  0  0  0  0  0  0  0
    7.6958   -6.5958    0.0000 C   0  0  0  0  0  0  0  0  0  0  0  0
    8.4083   -7.0083    0.0000 C   0  0  0  0  0  0  0  0  0  0  0  0
  2  1  2  0
  3  1  1  0
  4  3  2  0
  5  7  2  0
  6  2  1  0
  7  3  1  0
  8  4  1  0
  9  5  1  0
  9  8  2  0
M  END

> <chembl_id>
CHEMBL2008749

> <chembl_pref_name>
None

$$$$

     RDKit          2D

  9  9  0  0  0  0  0  0  0  0999 V2000
    2.3507   -3.9150    0.0000 N   0  0  0  0  0  0  0  0  0  0  0  0
    2.3061   -4.7391    0.0000 C   0  0  0  0  0  0  0  0  0  0  0  0
    2.9970   -5.1898    0.0000 C   0  0  0  0  0  0  0  0  0  0  0  0
    2.9522   -6.0139    0.0000 C   0  0  0  0  0  0  0  0  0  0  0  0
    2.2166   -6.3873    0.0000 C   0  0  0  0  0  0  0  0  0  0  0  0
    1.5257   -5.9364    0.0000 C   0  0  0  0  0  0  0  0  0  0  0  0
    1.5704   -5.1124    0.0000 C   0  0  0  0  0  0  0  0  0  0  0  0
    1.6598   -3.4642    0.0000 C   0  0  0  0  0  0  0  0  0  0  0  0
    3.0865   -3.5417    0.0000 C   0  0  0  0  0  0  0  0  0  0  0  0
  1  2  1  0
  2  3  1  0
  3  4  2  0
  4  5  1  0
  5  6  2  0
  6  7  1  0
  2  7  2  0
  1  8  1  0
  1  9  1  0
M  END

> <chembl_id>
CHEMBL371654

> <chembl_pref_name>
None

$$$$

     RDKit          2D

 11 12  0  0  0  0  0  0  0  0999 V2000
    0.1528    0.2803    0.0000 C   0  0  0  0  0  0  0  0  0  0  0  0
    0.8673    0.6928    0.0000 C   0  0  0  0  0  0  0  0  0  0  0  0
    1.5818    0.2803    0.0000 C   0  0  0  0  0  0  0  0  0  0  0  0
    1.5818   -0.5447    0.0000 C   0  0  0  0  0  0  0  0  0  0  0  0
    0.8673   -0.9572    0.0000 C   0  0  0  0  0  0  0  0  0  0  0  0
   -0.6318   -0.7996    0.0000 N   0  0  0  0  0  0  0  0  0  0  0  0
    0.1528   -0.5447    0.0000 C   0  0  0  0  0  0  0  0  0  0  0  0
   -0.6318    0.5353    0.0000 C   0  0  0  0  0  0  0  0  0  0  0  0
   -1.1167   -0.1322    0.0000 C   0  0  0  0  0  0  0  0  0  0  0  0
   -0.8867    1.3199    0.0000 O   0  0  0  0  0  0  0  0  0  0  0  0
   -1.9417   -0.1322    0.0000 O   0  0  0  0  0  0  0  0  0  0  0  0
  1  2  2  0
  1  7  1  0
  1  8  1  0
  2  3  1  0
  3  4  2  0
  4  5  1  0
  5  7  2  0
  7  6  1  0
  9  6  1  0
  9  8  1  0
  8 10  2  0
  9 11  2  0
M  END

> <chembl_id>
CHEMBL326294

> <chembl_pref_name>
ISATIN

$$$$

     RDKit          2D

 10 10  0  0  0  0  0  0  0  0999 V2000
    1.1574    0.8168    0.0000 O   0  0  0  0  0  0  0  0  0  0  0  0
    1.1574   -0.8332    0.0000 N   0  0  0  0  0  0  0  0  0  0  0  0
    0.4430    0.4043    0.0000 C   0  0  0  0  0  0  0  0  0  0  0  0
    0.4430   -0.4207    0.0000 C   0  0  0  0  0  0  0  0  0  0  0  0
   -0.2715    0.8168    0.0000 C   0  0  0  0  0  0  0  0  0  0  0  0
   -0.9860   -0.4207    0.0000 C   0  0  0  0  0  0  0  0  0  0  0  0
   -0.2715   -0.8332    0.0000 C   0  0  0  0  0  0  0  0  0  0  0  0
   -0.9860    0.4043    0.0000 C   0  0  0  0  0  0  0  0  0  0  0  0
   -0.2715    1.6418    0.0000 C   0  0  0  0  0  0  0  0  0  0  0  0
   -1.7004   -0.8332    0.0000 C   0  0  0  0  0  0  0  0  0  0  0  0
  1  3  1  0
  2  4  1  0
  3  4  1  0
  3  5  2  0
  4  7  2  0
  5  8  1  0
  5  9  1  0
  6  7  1  0
  6  8  2  0
  6 10  1  0
M  END

> <chembl_id>
CHEMBL1612597

> <chembl_pref_name>
None

$$$$

     RDKit          2D

  8  8  0  0  0  0  0  0  0  0999 V2000
   -0.4053  -24.3497    0.0000 C   0  0  0  0  0  0  0  0  0  0  0  0
   -0.4065  -25.1766    0.0000 C   0  0  0  0  0  0  0  0  0  0  0  0
    0.3079  -25.5892    0.0000 C   0  0  0  0  0  0  0  0  0  0  0  0
    1.0238  -25.1761    0.0000 C   0  0  0  0  0  0  0  0  0  0  0  0
    1.0209  -24.3461    0.0000 C   0  0  0  0  0  0  0  0  0  0  0  0
    0.3061  -23.9373    0.0000 C   0  0  0  0  0  0  0  0  0  0  0  0
    0.3036  -23.1129    0.0000 O   0  0  0  0  0  0  0  0  0  0  0  0
    1.7384  -25.5872    0.0000 N   0  0  0  0  0  0  0  0  0  0  0  0
  4  5  1  0
  5  6  2  0
  6  1  1  0
  2  3  1  0
  6  7  1  0
  4  8  1  0
  3  4  2  0
  1  2  2  0
M  END

> <chembl_id>
CHEMBL269755

> <chembl_pref_name>
3-AMINOPHENOL

$$$$

     RDKit          2D

  8  8  0  0  0  0  0  0  0  0999 V2000
    2.5956   -2.7031    0.0000 Cl  0  0  0  0  0  0  0  0  0  0  0  0
    2.5973   -1.5031    0.0000 C   0  0  0  0  0  0  0  0  0  0  0  0
    1.2990   -0.7500    0.0000 C   0  0  0  0  0  0  0  0  0  0  0  0
    1.2990    0.7500    0.0000 C   0  0  0  0  0  0  0  0  0  0  0  0
    0.0000    1.5000    0.0000 C   0  0  0  0  0  0  0  0  0  0  0  0
   -1.2990    0.7500    0.0000 N   0  0  0  0  0  0  0  0  0  0  0  0
   -1.2990   -0.7500    0.0000 C   0  0  0  0  0  0  0  0  0  0  0  0
    0.0000   -1.5000    0.0000 C   0  0  0  0  0  0  0  0  0  0  0  0
  1  2  1  0
  2  3  1  0
  3  4  2  3
  4  5  1  0
  5  6  2  3
  6  7  1  0
  7  8  2  3
  8  3  1  0
M  END


> <chembl_id>
CHEMBL4598030

> <chembl_pref_name>
None

$$$$

     RDKit          2D

  9  9  0  0  0  0  0  0  0  0999 V2000
   12.9498  -14.3421    0.0000 C   0  0  0  0  0  0  0  0  0  0  0  0
   12.9487  -15.1616    0.0000 C   0  0  0  0  0  0  0  0  0  0  0  0
   13.6567  -15.5706    0.0000 N   0  0  0  0  0  0  0  0  0  0  0  0
   14.3664  -15.1611    0.0000 C   0  0  0  0  0  0  0  0  0  0  0  0
   14.3636  -14.3385    0.0000 C   0  0  0  0  0  0  0  0  0  0  0  0
   13.6549  -13.9332    0.0000 C   0  0  0  0  0  0  0  0  0  0  0  0
   15.0697  -13.9272    0.0000 C   0  0  0  0  0  0  0  0  0  0  0  0
   15.0747  -15.5686    0.0000 C   0  0  0  0  0  0  0  0  0  0  0  0
   15.7790  -14.3331    0.0000 O   0  0  0  0  0  0  0  0  0  0  0  0
  1  2  2  0
  2  3  1  0
  3  4  2  0
  4  5  1  0
  5  6  2  0
  6  1  1  0
  5  7  1  0
  4  8  1  0
  7  9  1  0
M  END

> <chembl_id>
CHEMBL3303578

> <chembl_pref_name>
None

$$$$

     RDKit          2D

 11 11  0  0  0  0  0  0  0  0999 V2000
   29.4599   -7.5446    0.0000 C   0  0  0  0  0  0  0  0  0  0  0  0
   29.4588   -8.3728    0.0000 C   0  0  0  0  0  0  0  0  0  0  0  0
   30.1742   -8.7861    0.0000 N   0  0  0  0  0  0  0  0  0  0  0  0
   30.8914   -8.3723    0.0000 C   0  0  0  0  0  0  0  0  0  0  0  0
   30.8886   -7.5410    0.0000 C   0  0  0  0  0  0  0  0  0  0  0  0
   30.1724   -7.1316    0.0000 C   0  0  0  0  0  0  0  0  0  0  0  0
   31.6071   -8.7841    0.0000 O   0  0  0  0  0  0  0  0  0  0  0  0
   30.1740   -9.6118    0.0000 C   0  0  0  0  0  0  0  0  0  0  0  0
   32.3217   -8.3701    0.0000 C   0  0  0  0  0  0  0  0  0  0  0  0
   28.7452   -7.1325    0.0000 C   0  0  0  0  0  0  0  0  0  0  0  0
   28.0300   -6.7198    0.0000 N   0  0  0  0  0  0  0  0  0  0  0  0
  1  2  2  0
  2  3  1  0
  3  4  2  0
  4  5  1  0
  5  6  2  0
  6  1  1  0
  4  7  1  0
  3  8  1  0
  7  9  1  0
 10 11  3  0
  1 10  1  0
M  CHG  1   3   1
M  END

> <chembl_id>
CHEMBL3558908

> <chembl_pref_name>
None

$$$$

     RDKit          2D

 10 10  0  0  0  0  0  0  0  0999 V2000
    0.7176   -2.4777    0.0000 O   0  0  0  0  0  0  0  0  0  0  0  0
    2.1386   -2.4777    0.0000 N   0  0  0  0  0  0  0  0  0  0  0  0
    1.4317   -1.2460    0.0000 N   0  0  0  0  0  0  0  0  0  0  0  0
    2.8526   -1.2460    0.0000 N   0  0  0  0  0  0  0  0  0  0  0  0
    3.5702   -2.4777    0.0000 N   0  0  0  0  0  0  0  0  0  0  0  0
    1.4317   -2.0707    0.0000 C   0  0  0  0  0  0  0  0  0  0  0  0
    2.8526   -2.0707    0.0000 C   0  0  0  0  0  0  0  0  0  0  0  0
    2.1386   -0.8283    0.0000 C   0  0  0  0  0  0  0  0  0  0  0  0
    2.1386    0.0000    0.0000 C   0  0  0  0  0  0  0  0  0  0  0  0
    0.0000   -2.0707    0.0000 C   0  0  0  0  0  0  0  0  0  0  0  0
  1  6  1  0
  1 10  1  0
  2  6  1  0
  2  7  2  0
  3  6  2  0
  3  8  1  0
  4  7  1  0
  4  8  2  0
  5  7  1  0
  8  9  1  0
M  END

> <chembl_id>
CHEMBL3188290

> <chembl_pref_name>
None

$$$$

     RDKit          2D

  8  8  0  0  0  0  0  0  0  0999 V2000
   28.8809   -5.6749    0.0000 C   0  0  0  0  0  0  0  0  0  0  0  0
   28.8798   -6.4944    0.0000 C   0  0  0  0  0  0  0  0  0  0  0  0
   29.5878   -6.9034    0.0000 N   0  0  0  0  0  0  0  0  0  0  0  0
   30.2975   -6.4940    0.0000 C   0  0  0  0  0  0  0  0  0  0  0  0
   30.2947   -5.6713    0.0000 C   0  0  0  0  0  0  0  0  0  0  0  0
   29.5860   -5.2660    0.0000 C   0  0  0  0  0  0  0  0  0  0  0  0
   31.0058   -6.9014    0.0000 C   0  0  0  0  0  0  0  0  0  0  0  0
   31.0008   -5.2600    0.0000 C   0  0  0  0  0  0  0  0  0  0  0  0
  1  2  2  0
  2  3  1  0
  3  4  2  0
  4  5  1  0
  5  6  2  0
  6  1  1  0
  4  7  1  0
  5  8  1  0
M  END

> <chembl_id>
CHEMBL3303914

> <chembl_pref_name>
None

$$$$

     RDKit          2D

  9  9  0  0  0  0  0  0  0  0999 V2000
    3.7163   -1.4308    0.0000 S   0  0  0  0  0  0  0  0  0  0  0  0
    1.2375    0.0000    0.0000 N   0  0  0  0  0  0  0  0  0  0  0  0
    0.4125   -1.4308    0.0000 N   0  0  0  0  0  0  0  0  0  0  0  0
    1.6500   -0.7172    0.0000 C   0  0  0  0  0  0  0  0  0  0  0  0
    1.2375   -1.4308    0.0000 C   0  0  0  0  0  0  0  0  0  0  0  0
    2.4788   -0.7172    0.0000 C   0  0  0  0  0  0  0  0  0  0  0  0
    0.4125    0.0000    0.0000 C   0  0  0  0  0  0  0  0  0  0  0  0
    0.0000   -0.7172    0.0000 C   0  0  0  0  0  0  0  0  0  0  0  0
    2.8913   -1.4308    0.0000 C   0  0  0  0  0  0  0  0  0  0  0  0
  1  9  1  0
  2  4  1  0
  2  7  2  0
  3  5  1  0
  3  8  2  0
  4  5  2  0
  4  6  1  0
  6  9  1  0
  7  8  1  0
M  END

> <chembl_id>
CHEMBL3186300

> <chembl_pref_name>
None

$$$$

     RDKit          2D

 11 11  0  0  0  0  0  0  0  0999 V2000
    0.0650    0.7125    0.0000 C   0  0  0  0  0  0  0  0  0  0  0  0
    0.7794    1.1250    0.0000 N   0  0  0  0  0  0  0  0  0  0  0  0
    0.0650   -0.1125    0.0000 C   0  0  0  0  0  0  0  0  0  0  0  0
   -0.6495    1.1250    0.0000 N   0  0  0  0  0  0  0  0  0  0  0  0
    0.7794    1.9500    0.0000 C   0  0  0  0  0  0  0  0  0  0  0  0
    0.7794   -0.5250    0.0000 C   0  0  0  0  0  0  0  0  0  0  0  0
   -0.6495   -0.5250    0.0000 C   0  0  0  0  0  0  0  0  0  0  0  0
   -1.3640    0.7125    0.0000 C   0  0  0  0  0  0  0  0  0  0  0  0
    0.7794   -1.3500    0.0000 C   0  0  0  0  0  0  0  0  0  0  0  0
   -0.6495   -1.3500    0.0000 C   0  0  0  0  0  0  0  0  0  0  0  0
    0.0650   -1.7625    0.0000 C   0  0  0  0  0  0  0  0  0  0  0  0
  1  2  2  0
  1  3  1  0
  1  4  1  0
  2  5  1  0
  3  6  1  0
  3  7  2  0
  4  8  1  0
  6  9  2  0
  7 10  1  0
  9 11  1  0
 10 11  2  0
M  END

> <chembl_id>
CHEMBL1192542

> <chembl_pref_name>
None

$$$$

     RDKit          2D

  9  9  0  0  0  0  0  0  0  0999 V2000
    2.6945   -1.8250    0.0000 C   0  0  0  0  0  0  0  0  0  0  0  0
    2.6934   -2.6524    0.0000 C   0  0  0  0  0  0  0  0  0  0  0  0
    3.4081   -3.0653    0.0000 N   0  0  0  0  0  0  0  0  0  0  0  0
    4.1247   -2.6520    0.0000 C   0  0  0  0  0  0  0  0  0  0  0  0
    4.1218   -1.8214    0.0000 C   0  0  0  0  0  0  0  0  0  0  0  0
    3.4063   -1.4122    0.0000 C   0  0  0  0  0  0  0  0  0  0  0  0
    4.8398   -3.0633    0.0000 O   0  0  0  0  0  0  0  0  0  0  0  0
    3.4079   -3.8904    0.0000 C   0  0  0  0  0  0  0  0  0  0  0  0
    5.5537   -2.6497    0.0000 C   0  0  0  0  0  0  0  0  0  0  0  0
  1  2  2  0
  2  3  1  0
  3  4  2  0
  4  5  1  0
  5  6  2  0
  6  1  1  0
  4  7  1  0
  3  8  1  0
  7  9  1  0
M  CHG  1   3   1
M  END

> <chembl_id>
CHEMBL3558891

> <chembl_pref_name>
None

$$$$

     RDKit          2D

 10 10  0  0  0  0  0  0  0  0999 V2000
    4.0917   -2.0250    0.0000 N   0  0  0  0  0  0  0  0  0  0  0  0
    2.5417   -1.7292    0.0000 C   0  0  0  0  0  0  0  0  0  0  0  0
    2.0250   -2.0292    0.0000 C   0  0  0  0  0  0  0  0  0  0  0  0
    1.5042   -1.7292    0.0000 F   0  0  0  0  0  0  0  0  0  0  0  0
    3.0542   -2.0292    0.0000 C   0  0  0  0  0  0  0  0  0  0  0  0
    3.5750   -1.7292    0.0000 C   0  0  0  0  0  0  0  0  0  0  0  0
    2.5417   -2.9292    0.0000 C   0  0  0  0  0  0  0  0  0  0  0  0
    4.8375   -1.7417    0.0000 C   0  0  0  0  0  0  0  0  0  0  0  0
    2.0250   -2.6292    0.0000 C   0  0  0  0  0  0  0  0  0  0  0  0
    3.0542   -2.6292    0.0000 C   0  0  0  0  0  0  0  0  0  0  0  0
  2  5  2  0
  3  2  1  0
  4  3  1  0
  5  6  1  0
  6  1  1  0
  7 10  2  0
  8  1  1  0
  9  7  1  0
 10  5  1  0
  9  3  2  0
M  END

> <chembl_id>
CHEMBL1178113

> <chembl_pref_name>
None

$$$$

     RDKit          2D

  9  9  0  0  0  0  0  0  0  0999 V2000
    1.2377   -1.0789    0.0000 N   0  0  0  0  0  0  0  0  0  0  0  0
    2.4865   -0.6577    0.0000 N   0  0  0  0  0  0  0  0  0  0  0  0
    2.0284   -1.3264    0.0000 C   0  0  0  0  0  0  0  0  0  0  0  0
    1.2377   -0.2586    0.0000 C   0  0  0  0  0  0  0  0  0  0  0  0
    2.0062    0.0000    0.0000 C   0  0  0  0  0  0  0  0  0  0  0  0
    0.5801   -1.5665    0.0000 C   0  0  0  0  0  0  0  0  0  0  0  0
    3.3141   -0.6577    0.0000 C   0  0  0  0  0  0  0  0  0  0  0  0
    0.6687   -2.3868    0.0000 C   0  0  0  0  0  0  0  0  0  0  0  0
    0.0000   -2.8745    0.0000 C   0  0  0  0  0  0  0  0  0  0  0  0
  1  3  1  0
  1  4  1  0
  1  6  1  0
  2  3  2  0
  2  5  1  0
  2  7  1  0
  4  5  2  0
  6  8  1  0
  8  9  2  0
M  CHG  1   2   1
M  END

> <chembl_id>
CHEMBL3306823

> <chembl_pref_name>
None

$$$$

     RDKit          2D

 10 10  0  0  0  0  0  0  0  0999 V2000
    2.1581   -0.8151    0.0000 O   0  0  0  0  0  0  0  0  0  0  0  0
    0.7161    0.0000    0.0000 O   0  0  0  0  0  0  0  0  0  0  0  0
    1.4322   -1.2441    0.0000 C   0  0  0  0  0  0  0  0  0  0  0  0
    0.7161   -0.8250    0.0000 C   0  0  0  0  0  0  0  0  0  0  0  0
    1.4322   -2.0691    0.0000 C   0  0  0  0  0  0  0  0  0  0  0  0
    0.7161   -2.4749    0.0000 C   0  0  0  0  0  0  0  0  0  0  0  0
    0.0000   -1.2441    0.0000 C   0  0  0  0  0  0  0  0  0  0  0  0
    0.0000   -2.0691    0.0000 C   0  0  0  0  0  0  0  0  0  0  0  0
    0.7161   -3.2999    0.0000 C   0  0  0  0  0  0  0  0  0  0  0  0
    2.8809   -1.2342    0.0000 C   0  0  0  0  0  0  0  0  0  0  0  0
  1  3  1  0
  1 10  1  0
  2  4  1  0
  3  4  1  0
  3  5  2  0
  4  7  2  0
  5  6  1  0
  6  8  2  0
  6  9  1  0
  7  8  1  0
M  END

> <chembl_id>
CHEMBL3182715

> <chembl_pref_name>
None

$$$$

     RDKit          2D

 10 10  0  0  0  0  0  0  0  0999 V2000
    2.2393    2.0834    0.0000 O   0  0  0  0  0  0  0  0  0  0  0  0
    3.0008   -0.8765    0.0000 N   0  0  0  0  0  0  0  0  0  0  0  0
    4.0807   -1.6612    0.0000 N   0  0  0  0  0  0  0  0  0  0  0  0
    2.2393    0.4334    0.0000 N   0  0  0  0  0  0  0  0  0  0  0  0
    3.6682   -0.3916    0.0000 C   0  0  0  0  0  0  0  0  0  0  0  0
    3.6682    0.4334    0.0000 C   0  0  0  0  0  0  0  0  0  0  0  0
    4.3357   -0.8765    0.0000 C   0  0  0  0  0  0  0  0  0  0  0  0
    2.9538    0.8459    0.0000 C   0  0  0  0  0  0  0  0  0  0  0  0
    3.2557   -1.6612    0.0000 C   0  0  0  0  0  0  0  0  0  0  0  0
    2.9538    1.6709    0.0000 C   0  0  0  0  0  0  0  0  0  0  0  0
  1 10  1  0
  2  5  1  0
  2  9  2  0
  3  7  1  0
  3  9  1  0
  4  8  1  0
  5  6  1  0
  5  7  2  0
  6  8  1  0
  8 10  1  0
M  END

> <chembl_id>
CHEMBL2007999

> <chembl_pref_name>
None

$$$$

     RDKit          2D

 10 10  0  0  0  0  0  0  0  0999 V2000
   -1.4634   -0.7935    0.0000 O   0  0  0  0  0  0  0  0  0  0  0  0
   -0.1128    1.2260    0.0000 O   0  0  0  0  0  0  0  0  0  0  0  0
    1.0142   -1.2810    0.0000 N   0  0  0  0  0  0  0  0  0  0  0  0
   -0.0657   -0.4964    0.0000 C   0  0  0  0  0  0  0  0  0  0  0  0
    0.6017   -0.0115    0.0000 C   0  0  0  0  0  0  0  0  0  0  0  0
    0.1892   -1.2810    0.0000 C   0  0  0  0  0  0  0  0  0  0  0  0
    1.2692   -0.4964    0.0000 C   0  0  0  0  0  0  0  0  0  0  0  0
   -0.8503   -0.2415    0.0000 C   0  0  0  0  0  0  0  0  0  0  0  0
    0.6017    0.8135    0.0000 C   0  0  0  0  0  0  0  0  0  0  0  0
   -1.0219    0.5655    0.0000 C   0  0  0  0  0  0  0  0  0  0  0  0
  1  8  2  0
  2  9  1  0
  3  6  1  0
  3  7  1  0
  4  5  1  0
  4  6  2  0
  4  8  1  0
  5  7  2  0
  5  9  1  0
  8 10  1  0
M  END

> <chembl_id>
CHEMBL1966107

> <chembl_pref_name>
None

$$$$

     RDKit          2D

 11 12  0  0  0  0  0  0  0  0999 V2000
    6.4122   -8.6928    0.0000 C   0  0  0  0  0  0  0  0  0  0  0  0
    6.4110   -9.5188    0.0000 C   0  0  0  0  0  0  0  0  0  0  0  0
    7.1245   -9.9308    0.0000 C   0  0  0  0  0  0  0  0  0  0  0  0
    7.1227   -8.2808    0.0000 C   0  0  0  0  0  0  0  0  0  0  0  0
    7.8369   -8.6892    0.0000 C   0  0  0  0  0  0  0  0  0  0  0  0
    7.8417   -9.5142    0.0000 C   0  0  0  0  0  0  0  0  0  0  0  0
    8.6278   -9.7645    0.0000 C   0  0  0  0  0  0  0  0  0  0  0  0
    9.1089   -9.0942    0.0000 C   0  0  0  0  0  0  0  0  0  0  0  0
    8.6200   -8.4297    0.0000 C   0  0  0  0  0  0  0  0  0  0  0  0
    9.0256   -7.7113    0.0000 O   0  0  0  0  0  0  0  0  0  0  0  0
    9.9323   -9.0921    0.0000 O   0  0  0  0  0  0  0  0  0  0  0  0
  2  3  1  0
  3  6  2  0
  1  2  2  0
  5  4  2  0
  6  7  1  0
  7  8  1  0
  8  9  1  0
  9  5  1  0
  4  1  1  0
  9 10  2  0
  5  6  1  0
  8 11  2  0
M  END

> <chembl_id>
CHEMBL235288

> <chembl_pref_name>
None

$$$$

     RDKit          2D

  7  7  0  0  0  0  0  0  0  0999 V2000
   -4.5954  -21.4634    0.0000 C   0  0  0  0  0  0  0  0  0  0  0  0
   -4.5966  -22.2896    0.0000 C   0  0  0  0  0  0  0  0  0  0  0  0
   -3.8849  -22.7017    0.0000 C   0  0  0  0  0  0  0  0  0  0  0  0
   -3.1667  -22.2891    0.0000 N   0  0  0  0  0  0  0  0  0  0  0  0
   -3.1699  -21.4595    0.0000 C   0  0  0  0  0  0  0  0  0  0  0  0
   -3.8869  -21.0513    0.0000 C   0  0  0  0  0  0  0  0  0  0  0  0
   -3.8907  -20.2277    0.0000 O   0  0  0  0  0  0  0  0  0  0  0  0
  3  4  2  0
  4  5  1  0
  2  3  1  0
  5  6  2  0
  6  1  1  0
  1  2  2  0
  6  7  1  0
M  END

> <chembl_id>
CHEMBL237847

> <chembl_pref_name>
None

$$$$

     RDKit          2D

 11 12  0  0  0  0  0  0  0  0999 V2000
    3.6943  -20.7704    0.0000 C   0  0  0  0  0  0  0  0  0  0  0  0
    3.6932  -21.5977    0.0000 C   0  0  0  0  0  0  0  0  0  0  0  0
    4.4079  -22.0106    0.0000 C   0  0  0  0  0  0  0  0  0  0  0  0
    5.1244  -21.5973    0.0000 C   0  0  0  0  0  0  0  0  0  0  0  0
    5.1216  -20.7668    0.0000 C   0  0  0  0  0  0  0  0  0  0  0  0
    4.4061  -20.3576    0.0000 C   0  0  0  0  0  0  0  0  0  0  0  0
    5.8331  -20.3494    0.0000 C   0  0  0  0  0  0  0  0  0  0  0  0
    6.6581  -20.3463    0.0000 C   0  0  0  0  0  0  0  0  0  0  0  0
    6.2429  -19.6335    0.0000 C   0  0  0  0  0  0  0  0  0  0  0  0
    7.3741  -20.7561    0.0000 N   0  0  0  0  0  0  0  0  0  0  0  0
    6.2397  -18.8085    0.0000 C   0  0  0  0  0  0  0  0  0  0  0  0
  1  2  2  0
  2  3  1  0
  3  4  2  0
  4  5  1  0
  5  6  2  0
  6  1  1  0
  8  7  1  0
  9  8  1  0
  7  9  1  0
  7  5  1  1
  8 10  1  1
  9 11  1  6
M  END


> <chembl_id>
CHEMBL4300850

> <chembl_pref_name>
None

$$$$

     RDKit          2D

 13 15  0  0  0  0  0  0  0  0999 V2000
    7.0534   -4.7809    0.0000 C   0  0  0  0  0  0  0  0  0  0  0  0
    7.0523   -5.6079    0.0000 C   0  0  0  0  0  0  0  0  0  0  0  0
    7.7667   -6.0205    0.0000 C   0  0  0  0  0  0  0  0  0  0  0  0
    7.7649   -4.3684    0.0000 C   0  0  0  0  0  0  0  0  0  0  0  0
    8.4799   -4.7773    0.0000 C   0  0  0  0  0  0  0  0  0  0  0  0
    8.4802   -5.6033    0.0000 C   0  0  0  0  0  0  0  0  0  0  0  0
    9.2660   -5.8584    0.0000 C   0  0  0  0  0  0  0  0  0  0  0  0
    9.2655   -4.5219    0.0000 C   0  0  0  0  0  0  0  0  0  0  0  0
    9.7507   -5.1877    0.0000 C   0  0  0  0  0  0  0  0  0  0  0  0
   10.0847   -4.4345    0.0000 C   0  0  0  0  0  0  0  0  0  0  0  0
    9.2579   -3.6941    0.0000 H   0  0  0  0  0  0  0  0  0  0  0  0
   10.5447   -5.3973    0.0000 H   0  0  0  0  0  0  0  0  0  0  0  0
   10.7511   -3.9488    0.0000 N   0  0  0  0  0  0  0  0  0  0  0  0
  1  2  2  0
  2  3  1  0
  3  6  2  0
  5  4  2  0
  4  1  1  0
  5  6  1  0
  6  7  1  0
  7  9  1  0
  8  5  1  0
  9  8  1  0
 10  9  1  0
  8 10  1  0
  8 11  1  6
  9 12  1  6
 10 13  1  1
M  END


> <chembl_id>
CHEMBL4300499

> <chembl_pref_name>
None

$$$$

     RDKit          2D

  9  9  0  0  0  0  0  0  0  0999 V2000
    1.2702   -0.7333    0.0000 Cl  0  0  0  0  0  0  0  0  0  0  0  0
   -0.1588   -1.5583    0.0000 N   0  0  0  0  0  0  0  0  0  0  0  0
   -0.1588    1.7417    0.0000 N   0  0  0  0  0  0  0  0  0  0  0  0
    0.5557   -0.3208    0.0000 C   0  0  0  0  0  0  0  0  0  0  0  0
   -0.1588   -0.7333    0.0000 C   0  0  0  0  0  0  0  0  0  0  0  0
   -0.1588    0.9167    0.0000 C   0  0  0  0  0  0  0  0  0  0  0  0
    0.5557    0.5042    0.0000 C   0  0  0  0  0  0  0  0  0  0  0  0
   -0.8732   -0.3208    0.0000 C   0  0  0  0  0  0  0  0  0  0  0  0
   -0.8732    0.5042    0.0000 C   0  0  0  0  0  0  0  0  0  0  0  0
  1  4  1  0
  2  5  1  0
  3  6  1  0
  4  5  1  0
  4  7  2  0
  5  8  2  0
  6  7  1  0
  6  9  2  0
  8  9  1  0
M  END

> <chembl_id>
CHEMBL1619318

> <chembl_pref_name>
None

$$$$

     RDKit          2D

  9  9  0  0  0  0  0  0  0  0999 V2000
   -1.9966   -6.3021    0.0000 N   0  0  0  0  0  0  0  0  0  0  0  0
   -1.9966   -7.1271    0.0000 C   0  0  0  0  0  0  0  0  0  0  0  0
   -1.2821   -7.5396    0.0000 C   0  0  0  0  0  0  0  0  0  0  0  0
   -1.2821   -8.3646    0.0000 C   0  0  0  0  0  0  0  0  0  0  0  0
   -1.9966   -8.7771    0.0000 C   0  0  0  0  0  0  0  0  0  0  0  0
   -2.7110   -8.3646    0.0000 C   0  0  0  0  0  0  0  0  0  0  0  0
   -2.7110   -7.5396    0.0000 C   0  0  0  0  0  0  0  0  0  0  0  0
   -3.4255   -8.7771    0.0000 Cl  0  0  0  0  0  0  0  0  0  0  0  0
   -0.5676   -7.1271    0.0000 N   0  0  0  0  0  0  0  0  0  0  0  0
  1  2  1  0
  2  3  2  0
  3  4  1  0
  4  5  2  0
  5  6  1  0
  6  7  2  0
  2  7  1  0
  6  8  1  0
  3  9  1  0
M  END

> <chembl_id>
CHEMBL552741

> <chembl_pref_name>
None

$$$$

     RDKit          2D

 10 10  0  0  0  0  0  0  0  0999 V2000
    0.7145    1.2375    0.0000 C   0  0  0  0  0  0  0  0  0  0  0  0
    1.4289    0.8250    0.0000 C   0  0  0  0  0  0  0  0  0  0  0  0
    1.4289    0.0000    0.0000 C   0  0  0  0  0  0  0  0  0  0  0  0
    0.7145   -0.4125    0.0000 C   0  0  0  0  0  0  0  0  0  0  0  0
    0.0000    0.0000    0.0000 C   0  0  0  0  0  0  0  0  0  0  0  0
    0.0000    0.8250    0.0000 C   0  0  0  0  0  0  0  0  0  0  0  0
    0.7145    2.0625    0.0000 O   0  0  0  0  0  0  0  0  0  0  0  0
    0.7145   -1.2375    0.0000 N   0  0  0  0  0  0  0  0  0  0  0  0
    1.4289   -1.6500    0.0000 C   0  0  0  0  0  0  0  0  0  0  0  0
    0.0000   -1.6500    0.0000 C   0  0  0  0  0  0  0  0  0  0  0  0
  1  2  2  0
  2  3  1  0
  3  4  2  0
  4  5  1  0
  5  6  2  0
  1  6  1  0
  1  7  1  0
  8  9  1  0
  8 10  1  0
  4  8  1  0
M  END

> <chembl_id>
CHEMBL3707216

> <chembl_pref_name>
4-DIMETHYLAMINOPHENOL

$$$$

     RDKit          2D

  9  9  0  0  0  0  0  0  0  0999 V2000
   -0.0595    0.1777    0.0000 C   0  0  0  0  0  0  0  0  0  0  0  0
   -0.7739   -1.0598    0.0000 C   0  0  0  0  0  0  0  0  0  0  0  0
   -0.0595   -1.4723    0.0000 C   0  0  0  0  0  0  0  0  0  0  0  0
   -0.0595    1.0027    0.0000 C   0  0  0  0  0  0  0  0  0  0  0  0
    0.6550   -1.0598    0.0000 C   0  0  0  0  0  0  0  0  0  0  0  0
    0.6550   -0.2348    0.0000 C   0  0  0  0  0  0  0  0  0  0  0  0
   -0.7739    1.4152    0.0000 O   0  0  0  0  0  0  0  0  0  0  0  0
    0.6550    1.4152    0.0000 O   0  0  0  0  0  0  0  0  0  0  0  0
   -0.7739   -0.2348    0.0000 N   0  0  0  0  0  0  0  0  0  0  0  0
  1  4  1  0
  1  6  2  0
  1  9  1  0
  2  3  1  0
  2  9  2  0
  3  5  2  0
  4  7  2  0
  4  8  1  0
  5  6  1  0
M  END

> <chembl_id>
CHEMBL72628

> <chembl_pref_name>
2-PICOLINIC ACID

$$$$

     RDKit          2D

 11 12  0  0  0  0  0  0  0  0999 V2000
    5.3542   -2.2917    0.0000 N   0  0  0  0  0  0  0  0  0  0  0  0
    4.9792   -3.2667    0.0000 C   0  0  0  0  0  0  0  0  0  0  0  0
    4.9792   -2.6625    0.0000 C   0  0  0  0  0  0  0  0  0  0  0  0
    5.9292   -3.5292    0.0000 N   0  0  0  0  0  0  0  0  0  0  0  0
    5.3417   -3.6250    0.0000 C   0  0  0  0  0  0  0  0  0  0  0  0
    5.9417   -2.4042    0.0000 C   0  0  0  0  0  0  0  0  0  0  0  0
    6.2125   -2.9750    0.0000 C   0  0  0  0  0  0  0  0  0  0  0  0
    4.4542   -3.5667    0.0000 C   0  0  0  0  0  0  0  0  0  0  0  0
    4.4542   -2.3625    0.0000 C   0  0  0  0  0  0  0  0  0  0  0  0
    3.9417   -3.2667    0.0000 C   0  0  0  0  0  0  0  0  0  0  0  0
    3.9417   -2.6625    0.0000 C   0  0  0  0  0  0  0  0  0  0  0  0
  2  3  1  0
  3  1  1  0
  4  7  1  0
  5  2  1  0
  6  1  1  0
  7  6  1  0
  8  2  2  0
  9  3  2  0
 10 11  2  0
 11  9  1  0
  5  4  1  0
  8 10  1  0
M  END

> <chembl_id>
CHEMBL323692

> <chembl_pref_name>
None

$$$$

     RDKit          2D

  8  8  0  0  0  0  0  0  0  0999 V2000
    0.9500   -3.1917    0.0000 N   0  0  0  0  0  0  0  0  0  0  0  0
    1.4667   -4.1000    0.0000 C   0  0  0  0  0  0  0  0  0  0  0  0
    1.4667   -3.4917    0.0000 C   0  0  0  0  0  0  0  0  0  0  0  0
    0.4292   -3.5000    0.0000 C   0  0  0  0  0  0  0  0  0  0  0  0
    1.9917   -4.4000    0.0000 C   0  0  0  0  0  0  0  0  0  0  0  0
    0.9500   -4.4000    0.0000 C   0  0  0  0  0  0  0  0  0  0  0  0
    0.4292   -4.1000    0.0000 C   0  0  0  0  0  0  0  0  0  0  0  0
    1.9917   -5.0000    0.0000 C   0  0  0  0  0  0  0  0  0  0  0  0
  2  3  1  0
  3  1  2  0
  4  1  1  0
  5  2  1  0
  6  7  1  0
  7  4  2  0
  8  5  1  0
  2  6  2  0
M  END

> <chembl_id>
CHEMBL23025

> <chembl_pref_name>
None

$$$$

     RDKit          2D

  8  8  0  0  0  0  0  0  0  0999 V2000
    4.7127  -18.5110    0.0000 C   0  0  0  0  0  0  0  0  0  0  0  0
    4.7116  -19.3380    0.0000 C   0  0  0  0  0  0  0  0  0  0  0  0
    5.4260  -19.7506    0.0000 C   0  0  0  0  0  0  0  0  0  0  0  0
    6.1421  -19.3375    0.0000 C   0  0  0  0  0  0  0  0  0  0  0  0
    6.1393  -18.5074    0.0000 C   0  0  0  0  0  0  0  0  0  0  0  0
    5.4242  -18.0985    0.0000 C   0  0  0  0  0  0  0  0  0  0  0  0
    5.4217  -17.2739    0.0000 O   0  0  0  0  0  0  0  0  0  0  0  0
    5.4258  -20.5752    0.0000 O   0  0  0  0  0  0  0  0  0  0  0  0
  4  5  1  0
  2  3  1  0
  5  6  2  0
  6  1  1  0
  1  2  2  0
  6  7  1  0
  3  4  2  0
  3  8  1  0
M  END

> <chembl_id>
CHEMBL537

> <chembl_pref_name>
HYDROQUINONE

$$$$

     RDKit          2D

 10 10  0  0  0  0  0  0  0  0999 V2000
    0.4000   -0.5625    0.0000 N   0  0  0  0  0  0  0  0  0  0  0  0
    1.3667   -0.0042    0.0000 C   0  0  0  0  0  0  0  0  0  0  0  0
    3.2792   -0.0042    0.0000 N   0  0  0  0  0  0  0  0  0  0  0  0
    2.3167   -0.5625    0.0000 C   0  0  0  0  0  0  0  0  0  0  0  0
    0.4000   -1.6667    0.0000 C   0  0  0  0  0  0  0  0  0  0  0  0
   -0.5625   -0.0042    0.0000 C   0  0  0  0  0  0  0  0  0  0  0  0
    4.2625   -0.5625    0.0000 O   0  0  0  0  0  0  0  0  0  0  0  0
    1.3667    1.1208    0.0000 C   0  0  0  0  0  0  0  0  0  0  0  0
   -0.5625    1.1208    0.0000 C   0  0  0  0  0  0  0  0  0  0  0  0
    0.4000    1.6708    0.0000 C   0  0  0  0  0  0  0  0  0  0  0  0
  2  1  2  0
  4  3  2  3
  4  2  1  0
  5  1  1  0
  6  1  1  0
  7  3  1  0
  8  2  1  0
  9  6  2  0
 10  9  1  0
  8 10  2  0
M  CHG  1   1   1
M  END

> <chembl_id>
CHEMBL1420

> <chembl_pref_name>
PRALIDOXIME

$$$$

     RDKit          2D

  7  7  0  0  0  0  0  0  0  0999 V2000
    8.9309  -23.4869    0.0000 C   0  0  0  0  0  0  0  0  0  0  0  0
    9.6563  -23.8799    0.0000 C   0  0  0  0  0  0  0  0  0  0  0  0
    9.6804  -24.7033    0.0000 C   0  0  0  0  0  0  0  0  0  0  0  0
    8.9792  -25.1382    0.0000 C   0  0  0  0  0  0  0  0  0  0  0  0
    8.2538  -24.7450    0.0000 C   0  0  0  0  0  0  0  0  0  0  0  0
    8.2296  -23.9217    0.0000 C   0  0  0  0  0  0  0  0  0  0  0  0
    8.9067  -22.6634    0.0000 F   0  0  0  0  0  0  0  0  0  0  0  0
  1  2  1  0
  2  3  2  0
  3  4  1  0
  4  5  2  0
  5  6  1  0
  1  6  2  0
  1  7  1  0
M  END

> <chembl_id>
CHEMBL16070

> <chembl_pref_name>
FLUOROBENZENE

$$$$

     RDKit          2D

 10 10  0  0  0  0  0  0  0  0999 V2000
    0.3226    2.3107    0.0000 O   0  0  0  0  0  0  0  0  0  0  0  0
   -1.1063    2.3107    0.0000 O   0  0  0  0  0  0  0  0  0  0  0  0
   -1.8208   -0.5768    0.0000 O   0  0  0  0  0  0  0  0  0  0  0  0
   -1.1063   -0.1643    0.0000 N   0  0  0  0  0  0  0  0  0  0  0  0
   -0.3919    1.0732    0.0000 C   0  0  0  0  0  0  0  0  0  0  0  0
   -1.1063    0.6607    0.0000 C   0  0  0  0  0  0  0  0  0  0  0  0
   -0.3919    1.8982    0.0000 C   0  0  0  0  0  0  0  0  0  0  0  0
    0.3226    0.6607    0.0000 C   0  0  0  0  0  0  0  0  0  0  0  0
   -0.3919   -0.5768    0.0000 C   0  0  0  0  0  0  0  0  0  0  0  0
    0.3226   -0.1643    0.0000 C   0  0  0  0  0  0  0  0  0  0  0  0
  1  7  2  0
  2  7  1  0
  3  4  1  0
  4  6  2  0
  4  9  1  0
  5  6  1  0
  5  7  1  0
  5  8  2  0
  8 10  1  0
  9 10  2  0
M  CHG  2   3  -1   4   1
M  END

> <chembl_id>
CHEMBL1591725

> <chembl_pref_name>
OXINIACIC ACID

$$$$

     RDKit          2D

 10 10  0  0  0  0  0  0  0  0999 V2000
    3.5420  -13.2340    0.0000 C   0  0  0  0  0  0  0  0  0  0  0  0
    3.9539  -13.9488    0.0000 C   0  0  0  0  0  0  0  0  0  0  0  0
    3.5420  -14.6637    0.0000 C   0  0  0  0  0  0  0  0  0  0  0  0
    2.7181  -14.6637    0.0000 C   0  0  0  0  0  0  0  0  0  0  0  0
    2.3062  -13.9488    0.0000 C   0  0  0  0  0  0  0  0  0  0  0  0
    2.7181  -13.2340    0.0000 C   0  0  0  0  0  0  0  0  0  0  0  0
    3.9539  -12.5233    0.0000 O   0  0  0  0  0  0  0  0  0  0  0  0
    4.7777  -13.9488    0.0000 N   0  0  0  0  0  0  0  0  0  0  0  0
    5.1897  -13.2340    0.0000 O   0  0  0  0  0  0  0  0  0  0  0  0
    5.1897  -14.6637    0.0000 O   0  0  0  0  0  0  0  0  0  0  0  0
  1  2  1  0
  2  3  2  0
  3  4  1  0
  4  5  2  0
  5  6  1  0
  1  6  2  0
  1  7  1  0
  8  9  2  0
  8 10  1  0
  2  8  1  0
M  CHG  2   8   1  10  -1
M  END

> <chembl_id>
CHEMBL14205

> <chembl_pref_name>
NITROPHENOLATE

$$$$

     RDKit          2D

 11 11  0  0  0  0  0  0  0  0999 V2000
    0.5826   -2.6618    0.0000 O   0  0  0  0  0  0  0  0  0  0  0  0
    1.2971   -1.4243    0.0000 N   0  0  0  0  0  0  0  0  0  0  0  0
    2.0116   -1.0118    0.0000 C   0  0  0  0  0  0  0  0  0  0  0  0
    2.0116   -0.1868    0.0000 C   0  0  0  0  0  0  0  0  0  0  0  0
    2.7260    0.2257    0.0000 C   0  0  0  0  0  0  0  0  0  0  0  0
    2.7260   -1.4243    0.0000 C   0  0  0  0  0  0  0  0  0  0  0  0
    1.2971   -2.2493    0.0000 C   0  0  0  0  0  0  0  0  0  0  0  0
    3.4405   -0.1868    0.0000 C   0  0  0  0  0  0  0  0  0  0  0  0
    3.4405   -1.0118    0.0000 C   0  0  0  0  0  0  0  0  0  0  0  0
    2.7260    1.0507    0.0000 C   0  0  0  0  0  0  0  0  0  0  0  0
    2.0116   -2.6618    0.0000 C   0  0  0  0  0  0  0  0  0  0  0  0
  1  7  2  0
  2  3  1  0
  2  7  1  0
  3  4  1  0
  3  6  2  0
  4  5  2  0
  5  8  1  0
  5 10  1  0
  6  9  1  0
  7 11  1  0
  8  9  2  0
M  END

> <chembl_id>
CHEMBL1528164

> <chembl_pref_name>
None

$$$$

     RDKit          2D

 11 12  0  0  0  0  0  0  0  0999 V2000
   -3.7696    3.2323    0.0000 C   0  0  0  0  0  0  0  0  0  0  0  0
   -3.7708    2.4073    0.0000 C   0  0  0  0  0  0  0  0  0  0  0  0
   -3.0580    1.9957    0.0000 C   0  0  0  0  0  0  0  0  0  0  0  0
   -3.0598    3.6439    0.0000 C   0  0  0  0  0  0  0  0  0  0  0  0
   -2.3466    3.2359    0.0000 C   0  0  0  0  0  0  0  0  0  0  0  0
   -2.3431    2.4053    0.0000 C   0  0  0  0  0  0  0  0  0  0  0  0
   -1.6261    1.9952    0.0000 C   0  0  0  0  0  0  0  0  0  0  0  0
   -0.9078    2.4112    0.0000 C   0  0  0  0  0  0  0  0  0  0  0  0
   -0.9111    3.2418    0.0000 N   0  0  0  0  0  0  0  0  0  0  0  0
   -1.6328    3.6565    0.0000 C   0  0  0  0  0  0  0  0  0  0  0  0
   -4.4836    1.9966    0.0000 O   0  0  0  0  0  0  0  0  0  0  0  0
  2  3  1  0
  3  6  2  0
  5  4  2  0
  5 10  1  0
  6  7  1  0
  7  8  1  0
  8  9  1  0
  9 10  1  0
  4  1  1  0
  2 11  1  0
  5  6  1  0
  1  2  2  0
M  END

> <chembl_id>
CHEMBL310736

> <chembl_pref_name>
None

$$$$

     RDKit          2D

  9  9  0  0  0  0  0  0  0  0999 V2000
    2.8587   -1.6499    0.0000 F   0  0  0  0  0  0  0  0  0  0  0  0
    1.4298    0.8251    0.0000 F   0  0  0  0  0  0  0  0  0  0  0  0
    1.4298   -2.4749    0.0000 N   0  0  0  0  0  0  0  0  0  0  0  0
    2.1443   -1.2374    0.0000 C   0  0  0  0  0  0  0  0  0  0  0  0
    1.4298   -1.6499    0.0000 C   0  0  0  0  0  0  0  0  0  0  0  0
    1.4298    0.0001    0.0000 C   0  0  0  0  0  0  0  0  0  0  0  0
    2.1443   -0.4124    0.0000 C   0  0  0  0  0  0  0  0  0  0  0  0
    0.7153   -1.2374    0.0000 C   0  0  0  0  0  0  0  0  0  0  0  0
    0.7153   -0.4124    0.0000 C   0  0  0  0  0  0  0  0  0  0  0  0
  1  4  1  0
  2  6  1  0
  3  5  1  0
  4  5  1  0
  4  7  2  0
  5  8  2  0
  6  7  1  0
  6  9  2  0
  8  9  1  0
M  END

> <chembl_id>
CHEMBL1423658

> <chembl_pref_name>
None

$$$$

     RDKit          2D

  9  9  0  0  0  0  0  0  0  0999 V2000
    1.2990   -0.7500    0.0000 C   0  0  0  0  0  0  0  0  0  0  0  0
    1.2990    0.7500    0.0000 C   0  0  0  0  0  0  0  0  0  0  0  0
    0.0000    1.5000    0.0000 N   0  0  0  0  0  0  0  0  0  0  0  0
   -1.2990    0.7500    0.0000 C   0  0  0  0  0  0  0  0  0  0  0  0
   -1.2990   -0.7500    0.0000 C   0  0  0  0  0  0  0  0  0  0  0  0
    0.0000   -1.5000    0.0000 C   0  0  0  0  0  0  0  0  0  0  0  0
    0.0000   -2.7000    0.0000 O   0  0  0  0  0  0  0  0  0  0  0  0
   -2.3383   -1.3500    0.0000 O   0  0  0  0  0  0  0  0  0  0  0  0
    2.3383   -1.3500    0.0000 C   0  0  0  0  0  0  0  0  0  0  0  0
  1  2  2  0
  1  6  1  0
  2  3  1  0
  3  4  1  0
  4  5  2  0
  5  6  1  0
  6  7  2  0
  5  8  1  0
  1  9  1  0
M  END

> <chembl_id>
CHEMBL3787105

> <chembl_pref_name>
None

$$$$

     RDKit          2D

 10 10  0  0  0  0  0  0  0  0999 V2000
   12.0623  -13.3103    0.0000 C   0  0  0  0  0  0  0  0  0  0  0  0
   11.2452  -13.3103    0.0000 C   0  0  0  0  0  0  0  0  0  0  0  0
   10.8366  -14.0180    0.0000 C   0  0  0  0  0  0  0  0  0  0  0  0
   10.0194  -14.0180    0.0000 C   0  0  0  0  0  0  0  0  0  0  0  0
    9.6108  -13.3103    0.0000 C   0  0  0  0  0  0  0  0  0  0  0  0
    8.7936  -13.3103    0.0000 C   0  0  0  0  0  0  0  0  0  0  0  0
   10.0194  -12.6026    0.0000 C   0  0  0  0  0  0  0  0  0  0  0  0
   10.8366  -12.6026    0.0000 C   0  0  0  0  0  0  0  0  0  0  0  0
   12.8795  -13.3103    0.0000 N   0  0  0  0  0  0  0  0  0  0  0  0
    7.9764  -13.3103    0.0000 N   0  0  0  0  0  0  0  0  0  0  0  0
  1  2  1  0
  2  3  1  0
  3  4  2  0
  4  5  1  0
  5  6  1  0
  5  7  2  0
  7  8  1  0
  2  8  2  0
  1  9  3  0
  6 10  3  0
M  END

> <chembl_id>
CHEMBL3248224

> <chembl_pref_name>
None

$$$$

     RDKit          2D

  9  9  0  0  0  0  0  0  0  0999 V2000
    0.0025   -1.8136    0.0000 S   0  0  0  0  0  0  0  0  0  0  0  0
   -0.2994    0.6934    0.0000 O   0  0  0  0  0  0  0  0  0  0  0  0
   -1.0370   -0.7740    0.0000 N   0  0  0  0  0  0  0  0  0  0  0  0
    1.1295    0.6934    0.0000 N   0  0  0  0  0  0  0  0  0  0  0  0
    0.4150   -0.5441    0.0000 C   0  0  0  0  0  0  0  0  0  0  0  0
   -0.2524   -1.0290    0.0000 C   0  0  0  0  0  0  0  0  0  0  0  0
    0.4150    0.2809    0.0000 C   0  0  0  0  0  0  0  0  0  0  0  0
    1.0825   -1.0290    0.0000 C   0  0  0  0  0  0  0  0  0  0  0  0
    0.8275   -1.8136    0.0000 C   0  0  0  0  0  0  0  0  0  0  0  0
  1  6  1  0
  1  9  1  0
  2  7  2  0
  3  6  1  0
  4  7  1  0
  5  6  2  0
  5  7  1  0
  5  8  1  0
  8  9  2  0
M  END

> <chembl_id>
CHEMBL1335965

> <chembl_pref_name>
None

$$$$

     RDKit          2D

  9  9  0  0  0  0  0  0  0  0999 V2000
    0.1792   -0.5042    0.0000 C   0  0  0  0  0  0  0  0  0  0  0  0
   -1.4708   -0.5292    0.0000 C   0  0  0  0  0  0  0  0  0  0  0  0
   -0.2208   -1.2250    0.0000 C   0  0  0  0  0  0  0  0  0  0  0  0
   -0.2375    0.1958    0.0000 C   0  0  0  0  0  0  0  0  0  0  0  0
   -1.0583    0.1875    0.0000 C   0  0  0  0  0  0  0  0  0  0  0  0
   -1.0458   -1.2417    0.0000 C   0  0  0  0  0  0  0  0  0  0  0  0
   -2.2958   -0.5375    0.0000 C   0  0  0  0  0  0  0  0  0  0  0  0
    1.0042   -0.4917    0.0000 C   0  0  0  0  0  0  0  0  0  0  0  0
   -2.7125    0.1750    0.0000 C   0  0  0  0  0  0  0  0  0  0  0  0
  2  5  1  0
  3  1  2  0
  4  1  1  0
  5  4  2  0
  6  3  1  0
  7  2  1  0
  8  1  1  0
  9  7  1  0
  6  2  2  0
M  END

> <chembl_id>
CHEMBL195384

> <chembl_pref_name>
None

$$$$

     RDKit          2D

 10 10  0  0  0  0  0  0  0  0999 V2000
   -3.3219    0.7409    0.0000 O   0  0  0  0  0  0  0  0  0  0  0  0
   -3.5048   -2.4336    0.0000 O   0  0  0  0  0  0  0  0  0  0  0  0
   -1.9400   -0.9815    0.0000 N   0  0  0  0  0  0  0  0  0  0  0  0
   -2.1949   -1.7662    0.0000 N   0  0  0  0  0  0  0  0  0  0  0  0
   -1.8929    0.7409    0.0000 N   0  0  0  0  0  0  0  0  0  0  0  0
   -1.8929    1.5659    0.0000 N   0  0  0  0  0  0  0  0  0  0  0  0
   -2.6074   -0.4966    0.0000 C   0  0  0  0  0  0  0  0  0  0  0  0
   -2.6074    0.3284    0.0000 C   0  0  0  0  0  0  0  0  0  0  0  0
   -3.0199   -1.7662    0.0000 C   0  0  0  0  0  0  0  0  0  0  0  0
   -3.2748   -0.9815    0.0000 C   0  0  0  0  0  0  0  0  0  0  0  0
  1  8  2  0
  2  9  2  0
  3  4  1  0
  3  7  1  0
  4  9  1  0
  5  6  1  0
  5  8  1  0
  7  8  1  0
  7 10  2  0
  9 10  1  0
M  END

> <chembl_id>
CHEMBL1989739

> <chembl_pref_name>
None

$$$$

     RDKit          2D

  5  5  0  0  0  0  0  0  0  0999 V2000
    1.9292   -2.8417    0.0000 S   0  0  0  0  0  0  0  0  0  0  0  0
    1.2542   -3.3250    0.0000 C   0  0  0  0  0  0  0  0  0  0  0  0
    2.6000   -3.3250    0.0000 C   0  0  0  0  0  0  0  0  0  0  0  0
    2.3417   -4.1167    0.0000 C   0  0  0  0  0  0  0  0  0  0  0  0
    1.5125   -4.1167    0.0000 C   0  0  0  0  0  0  0  0  0  0  0  0
  2  1  1  0
  3  1  1  0
  4  3  2  0
  5  2  2  0
  5  4  1  0
M  END

> <chembl_id>
CHEMBL278958

> <chembl_pref_name>
THIOPHENE

$$$$

     RDKit          2D

  9  9  0  0  0  0  0  0  0  0999 V2000
   12.5705  -11.1895    0.0000 O   0  0  0  0  0  0  0  0  0  0  0  0
   13.2424  -10.7107    0.0000 N   0  0  0  0  0  0  0  0  0  0  0  0
   12.9965   -9.9232    0.0000 C   0  0  0  0  0  0  0  0  0  0  0  0
   12.1691   -9.9152    0.0000 C   0  0  0  0  0  0  0  0  0  0  0  0
   11.9099  -10.6974    0.0000 N   0  0  0  0  0  0  0  0  0  0  0  0
   14.0242  -10.9738    0.0000 O   0  0  0  0  0  0  0  0  0  0  0  0
   13.4885   -9.2610    0.0000 C   0  0  0  0  0  0  0  0  0  0  0  0
   11.6893   -9.2440    0.0000 C   0  0  0  0  0  0  0  0  0  0  0  0
   10.8682   -9.3239    0.0000 O   0  0  0  0  0  0  0  0  0  0  0  0
  4  5  2  0
  5  1  1  0
  1  2  1  0
  2  6  1  0
  3  7  1  0
  2  3  2  0
  4  8  1  0
  3  4  1  0
  8  9  1  0
M  CHG  2   2   1   6  -1
M  END

> <chembl_id>
CHEMBL244324

> <chembl_pref_name>
None

$$$$

     RDKit          2D

  8  8  0  0  0  0  0  0  0  0999 V2000
   -4.4072    2.5569    0.0000 C   0  0  0  0  0  0  0  0  0  0  0  0
   -4.4083    1.7300    0.0000 C   0  0  0  0  0  0  0  0  0  0  0  0
   -3.6939    1.3173    0.0000 C   0  0  0  0  0  0  0  0  0  0  0  0
   -2.9779    1.7305    0.0000 C   0  0  0  0  0  0  0  0  0  0  0  0
   -2.9807    2.5605    0.0000 C   0  0  0  0  0  0  0  0  0  0  0  0
   -3.6957    2.9694    0.0000 C   0  0  0  0  0  0  0  0  0  0  0  0
   -2.2683    2.9755    0.0000 C   0  0  0  0  0  0  0  0  0  0  0  0
   -5.1227    1.3183    0.0000 Cl  0  0  0  0  0  0  0  0  0  0  0  0
  4  5  1  0
  2  3  1  0
  5  6  2  0
  6  1  1  0
  1  2  2  0
  5  7  1  0
  3  4  2  0
  2  8  1  0
M  END

> <chembl_id>
CHEMBL1797268

> <chembl_pref_name>
None

$$$$

     RDKit          2D

  6  6  0  0  0  0  0  0  0  0999 V2000
    2.9625   -3.1875    0.0000 N   0  0  0  0  0  0  0  0  0  0  0  0
    3.6792   -3.5917    0.0000 N   0  0  0  0  0  0  0  0  0  0  0  0
    3.6750   -4.4167    0.0000 C   0  0  0  0  0  0  0  0  0  0  0  0
    2.2417   -3.5917    0.0000 C   0  0  0  0  0  0  0  0  0  0  0  0
    2.2417   -4.4167    0.0000 C   0  0  0  0  0  0  0  0  0  0  0  0
    2.9542   -4.8292    0.0000 C   0  0  0  0  0  0  0  0  0  0  0  0
  2  1  2  0
  3  2  1  0
  4  1  1  0
  5  4  2  0
  6  5  1  0
  6  3  2  0
M  END

> <chembl_id>
CHEMBL15719

> <chembl_pref_name>
PYRIDAZINE

$$$$

     RDKit          2D

 11 12  0  0  0  0  0  0  0  0999 V2000
    2.4481   -2.8996    0.0000 O   0  0  0  0  0  0  0  0  0  0  0  0
    2.4481    0.0000    0.0000 O   0  0  0  0  0  0  0  0  0  0  0  0
    2.6912   -1.4498    0.0000 N   0  0  0  0  0  0  0  0  0  0  0  0
    1.4194   -1.0157    0.0000 C   0  0  0  0  0  0  0  0  0  0  0  0
    1.4194   -1.8839    0.0000 C   0  0  0  0  0  0  0  0  0  0  0  0
    2.2007   -0.7900    0.0000 C   0  0  0  0  0  0  0  0  0  0  0  0
    2.2007   -2.1095    0.0000 C   0  0  0  0  0  0  0  0  0  0  0  0
    0.6902   -0.6207    0.0000 C   0  0  0  0  0  0  0  0  0  0  0  0
    0.6902   -2.2788    0.0000 C   0  0  0  0  0  0  0  0  0  0  0  0
    0.0000   -1.8839    0.0000 C   0  0  0  0  0  0  0  0  0  0  0  0
    0.0000   -1.0157    0.0000 C   0  0  0  0  0  0  0  0  0  0  0  0
  1  7  2  0
  2  6  2  0
  3  6  1  0
  3  7  1  0
  4  5  2  0
  4  6  1  0
  4  8  1  0
  5  7  1  0
  5  9  1  0
  8 11  2  0
  9 10  2  0
 10 11  1  0
M  END

> <chembl_id>
CHEMBL277294

> <chembl_pref_name>
PHTHALIMIDE

$$$$

     RDKit          2D

  9  9  0  0  0  0  0  0  0  0999 V2000
    4.8833   -0.5708    0.0000 O   0  0  0  0  0  0  0  0  0  0  0  0
    4.2099   -0.0841    0.0000 N   0  0  0  0  0  0  0  0  0  0  0  0
    4.4666    0.7042    0.0000 C   0  0  0  0  0  0  0  0  0  0  0  0
    5.2958    0.7042    0.0000 C   0  0  0  0  0  0  0  0  0  0  0  0
    5.5526   -0.0841    0.0000 N   0  0  0  0  0  0  0  0  0  0  0  0
    6.3374   -0.3386    0.0000 O   0  0  0  0  0  0  0  0  0  0  0  0
    5.7805    1.3718    0.0000 C   0  0  0  0  0  0  0  0  0  0  0  0
    3.9819    1.3718    0.0000 C   0  0  0  0  0  0  0  0  0  0  0  0
    3.9898    2.1968    0.0000 O   0  0  0  0  0  0  0  0  0  0  0  0
  5  1  1  0
  2  3  2  0
  5  6  1  0
  4  7  1  0
  1  2  1  0
  3  8  1  0
  3  4  1  0
  8  9  2  0
  4  5  2  0
M  CHG  2   5   1   6  -1
M  END

> <chembl_id>
CHEMBL1632054

> <chembl_pref_name>
None

$$$$

     RDKit          2D

  8  8  0  0  0  0  0  0  0  0999 V2000
   -1.4771   -5.0997    0.0000 N   0  0  0  0  0  0  0  0  0  0  0  0
   -2.1446   -5.5846    0.0000 C   0  0  0  0  0  0  0  0  0  0  0  0
   -1.8896   -6.3692    0.0000 C   0  0  0  0  0  0  0  0  0  0  0  0
   -1.0646   -6.3692    0.0000 N   0  0  0  0  0  0  0  0  0  0  0  0
   -0.8097   -5.5846    0.0000 C   0  0  0  0  0  0  0  0  0  0  0  0
   -1.4771   -4.2747    0.0000 C   0  0  0  0  0  0  0  0  0  0  0  0
   -0.7627   -3.8622    0.0000 C   0  0  0  0  0  0  0  0  0  0  0  0
   -0.7627   -3.0372    0.0000 O   0  0  0  0  0  0  0  0  0  0  0  0
  3  4  1  0
  4  5  2  0
  5  1  1  0
  1  2  1  0
  1  6  1  0
  6  7  1  0
  2  3  2  0
  7  8  1  0
M  END

> <chembl_id>
CHEMBL555293

> <chembl_pref_name>
None

$$$$

     RDKit          2D

  7  7  0  0  0  0  0  0  0  0999 V2000
    0.7917   -0.9292    0.0000 N   0  0  0  0  0  0  0  0  0  0  0  0
    0.7917   -2.5875    0.0000 C   0  0  0  0  0  0  0  0  0  0  0  0
    1.5125   -1.3417    0.0000 C   0  0  0  0  0  0  0  0  0  0  0  0
    0.0792   -1.3500    0.0000 C   0  0  0  0  0  0  0  0  0  0  0  0
    0.0792   -2.1750    0.0000 C   0  0  0  0  0  0  0  0  0  0  0  0
    1.5125   -2.1750    0.0000 C   0  0  0  0  0  0  0  0  0  0  0  0
    0.7917   -3.4125    0.0000 C   0  0  0  0  0  0  0  0  0  0  0  0
  2  5  1  0
  3  1  2  0
  4  1  1  0
  5  4  2  0
  6  3  1  0
  7  2  1  0
  2  6  2  0
M  END

> <chembl_id>
CHEMBL15544

> <chembl_pref_name>
None

$$$$

     RDKit          2D

 10 10  0  0  0  0  0  0  0  0999 V2000
    4.9292   -4.3792    0.0000 N   0  0  0  0  0  0  0  0  0  0  0  0
    4.9292   -6.0292    0.0000 N   0  0  0  0  0  0  0  0  0  0  0  0
    5.6417   -4.7917    0.0000 C   0  0  0  0  0  0  0  0  0  0  0  0
    5.6417   -5.6167    0.0000 C   0  0  0  0  0  0  0  0  0  0  0  0
    4.2167   -4.7917    0.0000 C   0  0  0  0  0  0  0  0  0  0  0  0
    4.2167   -5.6167    0.0000 C   0  0  0  0  0  0  0  0  0  0  0  0
    6.3542   -6.0292    0.0000 C   0  0  0  0  0  0  0  0  0  0  0  0
    6.3542   -4.3792    0.0000 C   0  0  0  0  0  0  0  0  0  0  0  0
    7.0667   -5.6167    0.0000 C   0  0  0  0  0  0  0  0  0  0  0  0
    7.7875   -6.0292    0.0000 C   0  0  0  0  0  0  0  0  0  0  0  0
  2  6  1  0
  3  1  2  0
  4  3  1  0
  5  1  1  0
  6  5  2  0
  7  4  1  0
  8  3  1  0
  9  7  1  0
 10  9  1  0
  2  4  2  0
M  END

> <chembl_id>
CHEMBL95176

> <chembl_pref_name>
None

$$$$

     RDKit          2D

  8  8  0  0  0  0  0  0  0  0999 V2000
    2.8547   -1.6443    0.0000 Cl  0  0  0  0  0  0  0  0  0  0  0  0
    0.0000   -1.6443    0.0000 Cl  0  0  0  0  0  0  0  0  0  0  0  0
    1.4274   -1.6443    0.0000 N   0  0  0  0  0  0  0  0  0  0  0  0
    2.1410   -1.2389    0.0000 C   0  0  0  0  0  0  0  0  0  0  0  0
    0.7137   -1.2389    0.0000 C   0  0  0  0  0  0  0  0  0  0  0  0
    2.1410   -0.4139    0.0000 C   0  0  0  0  0  0  0  0  0  0  0  0
    0.7137   -0.4139    0.0000 C   0  0  0  0  0  0  0  0  0  0  0  0
    1.4274    0.0000    0.0000 C   0  0  0  0  0  0  0  0  0  0  0  0
  1  4  1  0
  2  5  1  0
  3  4  2  0
  3  5  1  0
  4  6  1  0
  5  7  2  0
  6  8  2  0
  7  8  1  0
M  END

> <chembl_id>
CHEMBL3561947

> <chembl_pref_name>
None

$$$$

     RDKit          2D

 10 10  0  0  0  0  0  0  0  0999 V2000
   16.7554  -18.2184    0.0000 C   0  0  0  0  0  0  0  0  0  0  0  0
   16.7543  -19.0453    0.0000 C   0  0  0  0  0  0  0  0  0  0  0  0
   17.4686  -19.4580    0.0000 C   0  0  0  0  0  0  0  0  0  0  0  0
   18.1846  -19.0448    0.0000 C   0  0  0  0  0  0  0  0  0  0  0  0
   18.1818  -18.2148    0.0000 C   0  0  0  0  0  0  0  0  0  0  0  0
   17.4668  -17.8059    0.0000 C   0  0  0  0  0  0  0  0  0  0  0  0
   17.4643  -16.9814    0.0000 O   0  0  0  0  0  0  0  0  0  0  0  0
   18.8994  -19.4560    0.0000 N   0  0  0  0  0  0  0  0  0  0  0  0
   18.9006  -20.2805    0.0000 C   0  0  0  0  0  0  0  0  0  0  0  0
   19.6128  -19.0426    0.0000 C   0  0  0  0  0  0  0  0  0  0  0  0
  2  3  1  0
  5  6  2  0
  6  1  1  0
  1  2  2  0
  6  7  1  0
  3  4  2  0
  4  8  1  0
  8  9  1  0
  4  5  1  0
  8 10  1  0
M  END

> <chembl_id>
CHEMBL225257

> <chembl_pref_name>
None

$$$$

     RDKit          2D

  7  7  0  0  0  0  0  0  0  0999 V2000
   -0.7361   -0.6344    0.0000 N   0  0  0  0  0  0  0  0  0  0  0  0
   -0.7361    0.1906    0.0000 C   0  0  0  0  0  0  0  0  0  0  0  0
   -0.0217    0.6031    0.0000 C   0  0  0  0  0  0  0  0  0  0  0  0
    0.6928    0.1906    0.0000 C   0  0  0  0  0  0  0  0  0  0  0  0
    0.6928   -0.6344    0.0000 C   0  0  0  0  0  0  0  0  0  0  0  0
   -0.0217   -1.0469    0.0000 C   0  0  0  0  0  0  0  0  0  0  0  0
   -0.0217    1.4281    0.0000 N   0  0  0  0  0  0  0  0  0  0  0  0
  2  1  1  0
  6  1  2  0
  2  3  2  0
  3  4  1  0
  3  7  1  0
  4  5  2  0
  5  6  1  0
M  END

> <chembl_id>
CHEMBL25541

> <chembl_pref_name>
None

$$$$

     RDKit          2D

 10 10  0  0  0  0  0  0  0  0999 V2000
   -0.5010   -2.7154    0.0000 O   0  0  0  0  0  0  0  0  0  0  0  0
   -0.5448    0.9115    0.0000 N   0  0  0  0  0  0  0  0  0  0  0  0
   -1.6247    0.1269    0.0000 N   0  0  0  0  0  0  0  0  0  0  0  0
   -1.8797    0.9115    0.0000 N   0  0  0  0  0  0  0  0  0  0  0  0
   -1.2122    2.2214    0.0000 N   0  0  0  0  0  0  0  0  0  0  0  0
   -0.7997    0.1269    0.0000 C   0  0  0  0  0  0  0  0  0  0  0  0
   -1.2122    1.3964    0.0000 C   0  0  0  0  0  0  0  0  0  0  0  0
   -0.3148   -0.5406    0.0000 C   0  0  0  0  0  0  0  0  0  0  0  0
   -0.6504   -1.2942    0.0000 C   0  0  0  0  0  0  0  0  0  0  0  0
   -0.1655   -1.9617    0.0000 C   0  0  0  0  0  0  0  0  0  0  0  0
  1 10  1  0
  2  6  2  0
  2  7  1  0
  3  4  1  0
  3  6  1  0
  4  7  2  0
  5  7  1  0
  6  8  1  0
  8  9  1  0
  9 10  1  0
M  END

> <chembl_id>
CHEMBL1461312

> <chembl_pref_name>
None

$$$$

     RDKit          2D

 11 12  0  0  0  0  0  0  0  0999 V2000
    1.5110    2.8670    0.0000 C   0  0  0  0  0  0  0  0  0  0  0  0
    1.5099    2.0420    0.0000 C   0  0  0  0  0  0  0  0  0  0  0  0
    2.2227    1.6303    0.0000 C   0  0  0  0  0  0  0  0  0  0  0  0
    2.2209    3.2787    0.0000 C   0  0  0  0  0  0  0  0  0  0  0  0
    2.9343    2.8707    0.0000 C   0  0  0  0  0  0  0  0  0  0  0  0
    2.9377    2.0399    0.0000 C   0  0  0  0  0  0  0  0  0  0  0  0
    3.6549    1.6298    0.0000 C   0  0  0  0  0  0  0  0  0  0  0  0
    4.3733    2.0458    0.0000 C   0  0  0  0  0  0  0  0  0  0  0  0
    4.3698    2.8766    0.0000 N   0  0  0  0  0  0  0  0  0  0  0  0
    3.6480    3.2913    0.0000 C   0  0  0  0  0  0  0  0  0  0  0  0
    0.7985    3.2783    0.0000 O   0  0  0  0  0  0  0  0  0  0  0  0
  2  3  1  0
  3  6  2  0
  5  4  2  0
  5 10  1  0
  6  7  1  0
  7  8  1  0
  8  9  1  0
  9 10  1  0
  4  1  1  0
  1 11  1  0
  5  6  1  0
  1  2  2  0
M  END

> <chembl_id>
CHEMBL27730

> <chembl_pref_name>
None

$$$$

     RDKit          2D

  9  9  0  0  0  0  0  0  0  0999 V2000
    5.8542   -2.6042    0.0000 N   0  0  0  0  0  0  0  0  0  0  0  0
    5.1417   -2.1917    0.0000 C   0  0  0  0  0  0  0  0  0  0  0  0
    5.1417   -1.3667    0.0000 C   0  0  0  0  0  0  0  0  0  0  0  0
    4.4292   -2.6042    0.0000 N   0  0  0  0  0  0  0  0  0  0  0  0
    6.5750   -2.1917    0.0000 C   0  0  0  0  0  0  0  0  0  0  0  0
    5.8542   -0.9542    0.0000 C   0  0  0  0  0  0  0  0  0  0  0  0
    6.5750   -1.3667    0.0000 C   0  0  0  0  0  0  0  0  0  0  0  0
    5.8542   -0.1292    0.0000 C   0  0  0  0  0  0  0  0  0  0  0  0
    6.5667    0.2833    0.0000 C   0  0  0  0  0  0  0  0  0  0  0  0
  2  1  1  0
  3  2  2  0
  4  2  1  0
  5  1  2  0
  6  7  2  0
  7  5  1  0
  8  6  1  0
  9  8  1  0
  3  6  1  0
M  END

> <chembl_id>
CHEMBL62077

> <chembl_pref_name>
None

$$$$

     RDKit          2D

 10 10  0  0  0  0  0  0  0  0999 V2000
   -4.6931  -13.1291    0.0000 C   0  0  0  0  0  0  0  0  0  0  0  0
   -4.6943  -13.9565    0.0000 N   0  0  0  0  0  0  0  0  0  0  0  0
   -3.9794  -14.3694    0.0000 C   0  0  0  0  0  0  0  0  0  0  0  0
   -3.2630  -13.9560    0.0000 N   0  0  0  0  0  0  0  0  0  0  0  0
   -3.2659  -13.1255    0.0000 C   0  0  0  0  0  0  0  0  0  0  0  0
   -3.9812  -12.7164    0.0000 C   0  0  0  0  0  0  0  0  0  0  0  0
   -3.9796  -15.1944    0.0000 O   0  0  0  0  0  0  0  0  0  0  0  0
   -5.4077  -12.7168    0.0000 O   0  0  0  0  0  0  0  0  0  0  0  0
   -3.9837  -11.8914    0.0000 C   0  0  0  0  0  0  0  0  0  0  0  0
   -2.5529  -12.7103    0.0000 C   0  0  0  0  0  0  0  0  0  0  0  0
  2  3  1  0
  5  6  2  0
  6  1  1  0
  1  2  2  0
  3  7  1  0
  3  4  2  0
  1  8  1  0
  6  9  1  0
  4  5  1  0
  5 10  1  0
M  END

> <chembl_id>
CHEMBL1650610

> <chembl_pref_name>
None

$$$$

     RDKit          2D

  9  9  0  0  0  0  0  0  0  0999 V2000
    2.2667   -2.1000    0.0000 C   0  0  0  0  0  0  0  0  0  0  0  0
    1.5042   -2.5375    0.0000 N   0  0  0  0  0  0  0  0  0  0  0  0
    2.2667   -1.2167    0.0000 C   0  0  0  0  0  0  0  0  0  0  0  0
    0.7417   -2.1000    0.0000 C   0  0  0  0  0  0  0  0  0  0  0  0
    0.7417   -1.2167    0.0000 C   0  0  0  0  0  0  0  0  0  0  0  0
    3.0292   -2.5417    0.0000 O   0  0  0  0  0  0  0  0  0  0  0  0
    1.5042   -0.7667    0.0000 C   0  0  0  0  0  0  0  0  0  0  0  0
    3.0292   -0.7750    0.0000 O   0  0  0  0  0  0  0  0  0  0  0  0
    1.5042   -3.4167    0.0000 C   0  0  0  0  0  0  0  0  0  0  0  0
  2  1  1  0
  3  1  1  0
  4  2  1  0
  5  7  1  0
  6  1  2  0
  7  3  2  0
  8  3  1  0
  9  2  1  0
  5  4  2  0
M  END

> <chembl_id>
CHEMBL52209

> <chembl_pref_name>
None

$$$$

     RDKit          2D

 10 10  0  0  0  0  0  0  0  0999 V2000
    9.0111  -12.3916    0.0000 C   0  0  0  0  0  0  0  0  0  0  0  0
    9.0099  -13.2190    0.0000 N   0  0  0  0  0  0  0  0  0  0  0  0
    9.7247  -13.6319    0.0000 C   0  0  0  0  0  0  0  0  0  0  0  0
   10.4412  -13.2185    0.0000 C   0  0  0  0  0  0  0  0  0  0  0  0
   10.4383  -12.3880    0.0000 C   0  0  0  0  0  0  0  0  0  0  0  0
    9.7229  -11.9789    0.0000 C   0  0  0  0  0  0  0  0  0  0  0  0
   11.1512  -11.9728    0.0000 C   0  0  0  0  0  0  0  0  0  0  0  0
   11.8672  -12.3826    0.0000 N   0  0  0  0  0  0  0  0  0  0  0  0
   11.1481  -11.1478    0.0000 O   0  0  0  0  0  0  0  0  0  0  0  0
   11.8704  -13.2076    0.0000 N   0  0  0  0  0  0  0  0  0  0  0  0
  2  3  1  0
  5  6  2  0
  6  1  1  0
  1  2  2  0
  5  7  1  0
  3  4  2  0
  7  8  1  0
  7  9  2  0
  4  5  1  0
  8 10  1  0
M  ISO  1   7  14
M  END

> <chembl_id>
CHEMBL1091433

> <chembl_pref_name>
None

$$$$

     RDKit          2D

  9  9  0  0  0  0  0  0  0  0999 V2000
    1.9417   -4.9667    0.0000 C   0  0  0  0  0  0  0  0  0  0  0  0
    1.4167   -5.8667    0.0000 N   0  0  0  0  0  0  0  0  0  0  0  0
    1.9417   -5.5667    0.0000 C   0  0  0  0  0  0  0  0  0  0  0  0
    1.4167   -4.6667    0.0000 C   0  0  0  0  0  0  0  0  0  0  0  0
    2.4542   -4.6625    0.0000 O   0  0  0  0  0  0  0  0  0  0  0  0
    0.9042   -5.5667    0.0000 C   0  0  0  0  0  0  0  0  0  0  0  0
    0.9042   -4.9667    0.0000 C   0  0  0  0  0  0  0  0  0  0  0  0
    2.4625   -5.8667    0.0000 C   0  0  0  0  0  0  0  0  0  0  0  0
    1.4167   -4.0667    0.0000 C   0  0  0  0  0  0  0  0  0  0  0  0
  2  3  2  0
  3  1  1  0
  4  1  2  0
  5  1  1  0
  6  7  2  0
  7  4  1  0
  8  3  1  0
  9  4  1  0
  2  6  1  0
M  END

> <chembl_id>
CHEMBL134480

> <chembl_pref_name>
None

$$$$

     RDKit          2D

  9  9  0  0  0  0  0  0  0  0999 V2000
   -5.4897   -7.6432    0.0000 C   0  0  0  0  0  0  0  0  0  0  0  0
   -4.8164   -8.1170    0.0000 S   0  0  0  0  0  0  0  0  0  0  0  0
   -4.1582   -7.6232    0.0000 C   0  0  0  0  0  0  0  0  0  0  0  0
   -4.4239   -6.8440    0.0000 N   0  0  0  0  0  0  0  0  0  0  0  0
   -5.2471   -6.8565    0.0000 N   0  0  0  0  0  0  0  0  0  0  0  0
   -3.4389   -8.0272    0.0000 N   0  0  0  0  0  0  0  0  0  0  0  0
   -2.7293   -7.6063    0.0000 C   0  0  0  0  0  0  0  0  0  0  0  0
   -2.0100   -8.0103    0.0000 C   0  0  0  0  0  0  0  0  0  0  0  0
   -2.7391   -6.7814    0.0000 O   0  0  0  0  0  0  0  0  0  0  0  0
  4  5  1  0
  5  1  2  0
  1  2  1  0
  3  6  1  0
  6  7  1  0
  2  3  1  0
  7  8  1  0
  3  4  2  0
  7  9  2  0
M  END

> <chembl_id>
CHEMBL1288808

> <chembl_pref_name>
None

$$$$

     RDKit          2D

 10 10  0  0  0  0  0  0  0  0999 V2000
    4.8209   -9.1584    0.0000 N   0  0  0  0  0  0  0  0  0  0  0  0
    6.9626  -10.4002    0.0000 C   0  0  0  0  0  0  0  0  0  0  0  0
    6.2481   -9.9877    0.0000 C   0  0  0  0  0  0  0  0  0  0  0  0
    4.8267   -9.9910    0.0000 C   0  0  0  0  0  0  0  0  0  0  0  0
    5.5408  -10.3997    0.0000 C   0  0  0  0  0  0  0  0  0  0  0  0
    7.6771   -9.9877    0.0000 N   0  0  0  0  0  0  0  0  0  0  0  0
    5.5394   -8.7492    0.0000 C   0  0  0  0  0  0  0  0  0  0  0  0
    6.2518   -9.1624    0.0000 C   0  0  0  0  0  0  0  0  0  0  0  0
    5.5428   -7.9241    0.0000 O   0  0  0  0  0  0  0  0  0  0  0  0
    6.2588   -7.5144    0.0000 C   0  0  0  0  0  0  0  0  0  0  0  0
  2  3  1  0
  3  8  2  0
  7  1  2  0
  1  4  1  0
  4  5  2  0
  5  3  1  0
  2  6  1  0
  7  8  1  0
  7  9  1  0
  9 10  1  0
M  END

> <chembl_id>
CHEMBL4066086

> <chembl_pref_name>
None

$$$$

     RDKit          2D

 10 10  0  0  0  0  0  0  0  0999 V2000
    1.0003   -1.4004    0.0000 C   0  0  0  0  0  0  0  0  0  0  0  0
    0.2858   -1.8129    0.0000 C   0  0  0  0  0  0  0  0  0  0  0  0
   -0.4286   -1.4004    0.0000 C   0  0  0  0  0  0  0  0  0  0  0  0
   -0.4286   -0.5754    0.0000 C   0  0  0  0  0  0  0  0  0  0  0  0
    0.2858   -0.1629    0.0000 C   0  0  0  0  0  0  0  0  0  0  0  0
    1.0003   -0.5754    0.0000 C   0  0  0  0  0  0  0  0  0  0  0  0
    0.2858    0.6621    0.0000 C   0  0  0  0  0  0  0  0  0  0  0  0
   -0.4286    1.0746    0.0000 N   0  0  0  0  0  0  0  0  0  0  0  0
   -0.4286    1.8996    0.0000 C   0  0  0  0  0  0  0  0  0  0  0  0
   -1.1431    2.3121    0.0000 O   0  0  0  0  0  0  0  0  0  0  0  0
  1  2  1  0
  1  6  2  0
  2  3  2  0
  3  4  1  0
  4  5  2  0
  5  6  1  0
  7  5  1  0
  7  8  1  0
  9  8  1  0
  9 10  2  0
M  END

> <chembl_id>
CHEMBL46293

> <chembl_pref_name>
None

$$$$

     RDKit          2D

 10 10  0  0  0  0  0  0  0  0999 V2000
    4.9292   -4.3792    0.0000 N   0  0  0  0  0  0  0  0  0  0  0  0
    4.9292   -6.0292    0.0000 N   0  0  0  0  0  0  0  0  0  0  0  0
    5.6417   -4.7917    0.0000 C   0  0  0  0  0  0  0  0  0  0  0  0
    5.6417   -5.6167    0.0000 C   0  0  0  0  0  0  0  0  0  0  0  0
    4.2167   -4.7917    0.0000 C   0  0  0  0  0  0  0  0  0  0  0  0
    4.2167   -5.6167    0.0000 C   0  0  0  0  0  0  0  0  0  0  0  0
    6.3542   -4.3792    0.0000 C   0  0  0  0  0  0  0  0  0  0  0  0
    6.3542   -6.0292    0.0000 C   0  0  0  0  0  0  0  0  0  0  0  0
    3.5042   -4.3792    0.0000 C   0  0  0  0  0  0  0  0  0  0  0  0
    7.0667   -5.6167    0.0000 C   0  0  0  0  0  0  0  0  0  0  0  0
  2  6  1  0
  3  1  2  0
  4  3  1  0
  5  1  1  0
  6  5  2  0
  7  3  1  0
  8  4  1  0
  9  5  1  0
 10  8  1  0
  2  4  2  0
M  END

> <chembl_id>
CHEMBL328856

> <chembl_pref_name>
None

$$$$

     RDKit          2D

 10 10  0  0  0  0  0  0  0  0999 V2000
    3.6542   -0.5542    0.0000 C   0  0  0  0  0  0  0  0  0  0  0  0
    2.9375   -0.1417    0.0000 C   0  0  0  0  0  0  0  0  0  0  0  0
    2.2292   -0.5542    0.0000 N   0  0  0  0  0  0  0  0  0  0  0  0
    1.5125    0.6833    0.0000 N   0  0  0  0  0  0  0  0  0  0  0  0
    3.6542   -1.3792    0.0000 O   0  0  0  0  0  0  0  0  0  0  0  0
    4.3667   -0.1417    0.0000 N   0  0  0  0  0  0  0  0  0  0  0  0
    1.5167   -0.1417    0.0000 C   0  0  0  0  0  0  0  0  0  0  0  0
    5.0792   -0.5542    0.0000 N   0  0  0  0  0  0  0  0  0  0  0  0
    2.9417    0.6833    0.0000 C   0  0  0  0  0  0  0  0  0  0  0  0
    2.2292    1.0958    0.0000 C   0  0  0  0  0  0  0  0  0  0  0  0
  2  1  1  0
  3  2  1  0
  4 10  2  0
  5  1  2  0
  6  1  1  0
  7  3  2  0
  8  6  1  0
  9  2  2  0
 10  9  1  0
  7  4  1  0
M  END

> <chembl_id>
CHEMBL121865

> <chembl_pref_name>
None

$$$$

     RDKit          2D

  8  8  0  0  0  0  0  0  0  0999 V2000
   -1.0896    0.2372    0.0000 Cl  0  0  0  0  0  0  0  0  0  0  0  0
    0.3394   -1.4128    0.0000 N   0  0  0  0  0  0  0  0  0  0  0  0
    0.3394    1.0622    0.0000 N   0  0  0  0  0  0  0  0  0  0  0  0
   -0.3751   -0.1753    0.0000 C   0  0  0  0  0  0  0  0  0  0  0  0
    0.3394    0.2372    0.0000 C   0  0  0  0  0  0  0  0  0  0  0  0
   -0.3751   -1.0003    0.0000 C   0  0  0  0  0  0  0  0  0  0  0  0
    1.0539   -0.1753    0.0000 C   0  0  0  0  0  0  0  0  0  0  0  0
    1.0539   -1.0003    0.0000 C   0  0  0  0  0  0  0  0  0  0  0  0
  1  4  1  0
  2  6  1  0
  2  8  2  0
  3  5  1  0
  4  5  1  0
  4  6  2  0
  5  7  2  0
  7  8  1  0
M  END

> <chembl_id>
CHEMBL1579845

> <chembl_pref_name>
None

$$$$

     RDKit          2D

  7  7  0  0  0  0  0  0  0  0999 V2000
   -4.3875  -19.8023    0.0000 C   0  0  0  0  0  0  0  0  0  0  0  0
   -3.7075  -20.2694    0.0000 N   0  0  0  0  0  0  0  0  0  0  0  0
   -3.0532  -19.7671    0.0000 C   0  0  0  0  0  0  0  0  0  0  0  0
   -3.3285  -18.9892    0.0000 N   0  0  0  0  0  0  0  0  0  0  0  0
   -4.1533  -19.0112    0.0000 S   0  0  0  0  0  0  0  0  0  0  0  0
   -2.2621  -20.0013    0.0000 O   0  0  0  0  0  0  0  0  0  0  0  0
   -5.1644  -20.0767    0.0000 N   0  0  0  0  0  0  0  0  0  0  0  0
  2  3  1  0
  3  4  1  0
  4  5  1  0
  5  1  1  0
  1  2  2  0
  3  6  2  0
  1  7  1  0
M  END

> <chembl_id>
CHEMBL262076

> <chembl_pref_name>
None

$$$$

     RDKit          2D

  9  9  0  0  0  0  0  0  0  0999 V2000
    1.7625   -2.7542    0.0000 N   0  0  0  0  0  0  0  0  0  0  0  0
    1.0917   -3.2417    0.0000 C   0  0  0  0  0  0  0  0  0  0  0  0
    0.4292   -2.7542    0.0000 S   0  0  0  0  0  0  0  0  0  0  0  0
    1.5042   -1.9750    0.0000 C   0  0  0  0  0  0  0  0  0  0  0  0
    0.6875   -1.9750    0.0000 C   0  0  0  0  0  0  0  0  0  0  0  0
    1.0792   -4.0667    0.0000 N   0  0  0  0  0  0  0  0  0  0  0  0
    1.9917   -1.3042    0.0000 C   0  0  0  0  0  0  0  0  0  0  0  0
    2.1417    0.1208    0.0000 N   0  0  0  0  0  0  0  0  0  0  0  0
    1.6542   -0.5500    0.0000 C   0  0  0  0  0  0  0  0  0  0  0  0
  2  1  2  0
  3  2  1  0
  4  1  1  0
  5  4  2  0
  6  2  1  0
  7  4  1  0
  8  9  1  0
  9  7  1  0
  5  3  1  0
M  END

> <chembl_id>
CHEMBL324864

> <chembl_pref_name>
None

$$$$

     RDKit          2D

 10 10  0  0  0  0  0  0  0  0999 V2000
   -2.8708   -1.2292    0.0000 N   0  0  0  0  0  0  0  0  0  0  0  0
   -3.5750   -0.8250    0.0000 C   0  0  0  0  0  0  0  0  0  0  0  0
   -2.1583   -0.8250    0.0000 C   0  0  0  0  0  0  0  0  0  0  0  0
   -3.5750    0.0000    0.0000 N   0  0  0  0  0  0  0  0  0  0  0  0
   -2.1583    0.0000    0.0000 C   0  0  0  0  0  0  0  0  0  0  0  0
   -2.8708    0.4208    0.0000 C   0  0  0  0  0  0  0  0  0  0  0  0
   -4.2958   -1.2375    0.0000 O   0  0  0  0  0  0  0  0  0  0  0  0
   -2.8708    1.2458    0.0000 O   0  0  0  0  0  0  0  0  0  0  0  0
   -1.4375   -1.2375    0.0000 N   0  0  0  0  0  0  0  0  0  0  0  0
   -2.8708   -2.0542    0.0000 C   0  0  0  0  0  0  0  0  0  0  0  0
  2  1  1  0
  3  1  1  0
  4  2  1  0
  5  3  2  0
  6  5  1  0
  7  2  2  0
  8  6  2  0
  9  3  1  0
 10  1  1  0
  4  6  1  0
M  END

> <chembl_id>
CHEMBL89725

> <chembl_pref_name>
None

$$$$

     RDKit          2D

 10 10  0  0  0  0  0  0  0  0999 V2000
    3.5715   -0.8250    0.0000 O   0  0  0  0  0  0  0  0  0  0  0  0
    1.4286   -1.2429    0.0000 C   0  0  0  0  0  0  0  0  0  0  0  0
    0.7143   -0.8250    0.0000 C   0  0  0  0  0  0  0  0  0  0  0  0
    1.4286   -2.0643    0.0000 C   0  0  0  0  0  0  0  0  0  0  0  0
    0.0000   -1.2429    0.0000 C   0  0  0  0  0  0  0  0  0  0  0  0
    2.1429   -0.8250    0.0000 C   0  0  0  0  0  0  0  0  0  0  0  0
    0.7143   -2.4715    0.0000 C   0  0  0  0  0  0  0  0  0  0  0  0
    0.0000   -2.0643    0.0000 C   0  0  0  0  0  0  0  0  0  0  0  0
    0.7143    0.0000    0.0000 C   0  0  0  0  0  0  0  0  0  0  0  0
    2.8572   -1.2429    0.0000 C   0  0  0  0  0  0  0  0  0  0  0  0
  1 10  1  0
  2  3  1  0
  2  4  2  0
  2  6  1  0
  3  5  2  0
  3  9  1  0
  4  7  1  0
  5  8  1  0
  6 10  1  0
  7  8  2  0
M  END

> <chembl_id>
CHEMBL3182526

> <chembl_pref_name>
None

$$$$

     RDKit          2D

 11 12  0  0  0  0  0  0  0  0999 V2000
    8.2236    0.3917    0.0000 C   0  0  0  0  0  0  0  0  0  0  0  0
    8.2224   -0.4357    0.0000 C   0  0  0  0  0  0  0  0  0  0  0  0
    8.9372   -0.8485    0.0000 C   0  0  0  0  0  0  0  0  0  0  0  0
    9.6537   -0.4352    0.0000 C   0  0  0  0  0  0  0  0  0  0  0  0
    9.6508    0.3953    0.0000 C   0  0  0  0  0  0  0  0  0  0  0  0
    8.9354    0.8045    0.0000 C   0  0  0  0  0  0  0  0  0  0  0  0
   10.3637    0.8105    0.0000 C   0  0  0  0  0  0  0  0  0  0  0  0
   11.1874    0.8158    0.0000 C   0  0  0  0  0  0  0  0  0  0  0  0
   10.7722    1.5287    0.0000 C   0  0  0  0  0  0  0  0  0  0  0  0
   10.7679    2.3537    0.0000 C   0  0  0  0  0  0  0  0  0  0  0  0
   11.4803    2.7699    0.0000 N   0  0  0  0  0  0  0  0  0  0  0  0
  5  6  2  0
  6  1  1  0
  1  2  2  0
  7  5  1  0
  8  7  1  0
  9  8  1  0
  7  9  1  0
  3  4  2  0
  4  5  1  0
  9 10  1  0
  2  3  1  0
 10 11  1  0
M  END

> <chembl_id>
CHEMBL1187354

> <chembl_pref_name>
None

$$$$

     RDKit          2D

 11 12  0  0  0  0  0  0  0  0999 V2000
    0.2917   -0.7475    0.0000 C   0  0  0  0  0  0  0  0  0  0  0  0
    0.2917    0.7475    0.0000 C   0  0  0  0  0  0  0  0  0  0  0  0
    1.7138    1.2033    0.0000 C   0  0  0  0  0  0  0  0  0  0  0  0
    1.7138   -1.2033    0.0000 C   0  0  0  0  0  0  0  0  0  0  0  0
    2.5889    0.0182    0.0000 C   0  0  0  0  0  0  0  0  0  0  0  0
    4.0872    0.0320    0.0000 N   0  0  0  0  0  0  0  0  0  0  0  0
   -1.0028   -1.5132    0.0000 C   0  0  0  0  0  0  0  0  0  0  0  0
   -1.0028    1.5132    0.0000 C   0  0  0  0  0  0  0  0  0  0  0  0
    4.6976   -1.0012    0.0000 C   0  0  0  0  0  0  0  0  0  0  0  0
   -2.3155    0.7475    0.0000 C   0  0  0  0  0  0  0  0  0  0  0  0
   -2.3155   -0.7475    0.0000 C   0  0  0  0  0  0  0  0  0  0  0  0
  1  2  1  0
  2  3  1  0
  1  4  1  0
  3  5  1  0
  4  5  1  0
  5  6  1  0
  1  7  2  0
  2  8  2  0
  6  9  1  0
  8 10  1  0
  7 11  1  0
 10 11  2  0
M  END

> <chembl_id>
CHEMBL1188235

> <chembl_pref_name>
None

$$$$

     RDKit          2D

  9  9  0  0  0  0  0  0  0  0999 V2000
    4.0917   -2.0250    0.0000 N   0  0  0  0  0  0  0  0  0  0  0  0
    2.5417   -1.7292    0.0000 C   0  0  0  0  0  0  0  0  0  0  0  0
    2.0250   -2.0292    0.0000 C   0  0  0  0  0  0  0  0  0  0  0  0
    1.5042   -1.7292    0.0000 Cl  0  0  0  0  0  0  0  0  0  0  0  0
    3.0542   -2.0292    0.0000 C   0  0  0  0  0  0  0  0  0  0  0  0
    3.5750   -1.7292    0.0000 C   0  0  0  0  0  0  0  0  0  0  0  0
    2.5417   -2.9292    0.0000 C   0  0  0  0  0  0  0  0  0  0  0  0
    2.0250   -2.6292    0.0000 C   0  0  0  0  0  0  0  0  0  0  0  0
    3.0542   -2.6292    0.0000 C   0  0  0  0  0  0  0  0  0  0  0  0
  2  5  2  0
  3  2  1  0
  4  3  1  0
  5  6  1  0
  6  1  1  0
  7  9  2  0
  8  7  1  0
  9  5  1  0
  8  3  2  0
M  END

> <chembl_id>
CHEMBL12957

> <chembl_pref_name>
None

$$$$

     RDKit          2D

  9  9  0  0  0  0  0  0  0  0999 V2000
    3.6609    1.8792    0.0000 O   0  0  0  0  0  0  0  0  0  0  0  0
    3.6609   -1.4208    0.0000 N   0  0  0  0  0  0  0  0  0  0  0  0
    3.6609   -0.5958    0.0000 C   0  0  0  0  0  0  0  0  0  0  0  0
    3.6609    1.0542    0.0000 C   0  0  0  0  0  0  0  0  0  0  0  0
    2.9464   -0.1833    0.0000 C   0  0  0  0  0  0  0  0  0  0  0  0
    4.3754   -0.1833    0.0000 C   0  0  0  0  0  0  0  0  0  0  0  0
    2.9464    0.6417    0.0000 C   0  0  0  0  0  0  0  0  0  0  0  0
    4.3754    0.6417    0.0000 C   0  0  0  0  0  0  0  0  0  0  0  0
    4.3754   -1.8333    0.0000 C   0  0  0  0  0  0  0  0  0  0  0  0
  1  4  1  0
  2  3  1  0
  2  9  1  0
  3  5  2  0
  3  6  1  0
  4  7  2  0
  4  8  1  0
  5  7  1  0
  6  8  2  0
M  END

> <chembl_id>
CHEMBL1741003

> <chembl_pref_name>
None

$$$$

     RDKit          2D

 11 11  0  0  0  0  0  0  0  0999 V2000
    0.0000   -2.1396    0.0000 O   0  0  0  0  0  0  0  0  0  0  0  0
    1.2376   -1.4279    0.0000 N   0  0  0  0  0  0  0  0  0  0  0  0
    2.0626   -1.4279    0.0000 C   0  0  0  0  0  0  0  0  0  0  0  0
    2.4706   -0.7117    0.0000 C   0  0  0  0  0  0  0  0  0  0  0  0
    3.2957   -0.7117    0.0000 C   0  0  0  0  0  0  0  0  0  0  0  0
    3.7082   -1.4279    0.0000 C   0  0  0  0  0  0  0  0  0  0  0  0
    2.4706   -2.1396    0.0000 C   0  0  0  0  0  0  0  0  0  0  0  0
    3.2957   -2.1396    0.0000 C   0  0  0  0  0  0  0  0  0  0  0  0
    2.0626    0.0000    0.0000 C   0  0  0  0  0  0  0  0  0  0  0  0
    0.8251   -2.1396    0.0000 C   0  0  0  0  0  0  0  0  0  0  0  0
    4.5332   -1.4279    0.0000 C   0  0  0  0  0  0  0  0  0  0  0  0
  1 10  2  0
  2  3  1  0
  2 10  1  0
  3  4  1  0
  3  7  2  0
  4  5  2  0
  4  9  1  0
  5  6  1  0
  6  8  2  0
  6 11  1  0
  7  8  1  0
M  END

> <chembl_id>
CHEMBL3185750

> <chembl_pref_name>
None

$$$$

     RDKit          2D

  9  9  0  0  0  0  0  0  0  0999 V2000
    4.5292   -2.1667    0.0000 C   0  0  0  0  0  0  0  0  0  0  0  0
    5.3792   -2.6250    0.0000 N   0  0  0  0  0  0  0  0  0  0  0  0
    5.1167   -2.0875    0.0000 C   0  0  0  0  0  0  0  0  0  0  0  0
    4.4250   -2.7542    0.0000 C   0  0  0  0  0  0  0  0  0  0  0  0
    4.9542   -3.0292    0.0000 O   0  0  0  0  0  0  0  0  0  0  0  0
    5.4042   -1.5542    0.0000 O   0  0  0  0  0  0  0  0  0  0  0  0
    4.1167   -1.7417    0.0000 C   0  0  0  0  0  0  0  0  0  0  0  0
    3.8792   -3.0292    0.0000 C   0  0  0  0  0  0  0  0  0  0  0  0
    3.3792   -2.6917    0.0000 N   0  0  0  0  0  0  0  0  0  0  0  0
  2  3  2  0
  3  1  1  0
  4  1  2  0
  5  4  1  0
  6  3  1  0
  7  1  1  0
  8  4  1  0
  9  8  1  0
  2  5  1  0
M  END

> <chembl_id>
CHEMBL81327

> <chembl_pref_name>
None

$$$$

     RDKit          2D

  8  8  0  0  0  0  0  0  0  0999 V2000
    1.1042   -1.1500    0.0000 C   0  0  0  0  0  0  0  0  0  0  0  0
    0.3917   -0.7292    0.0000 C   0  0  0  0  0  0  0  0  0  0  0  0
   -0.3125   -1.1500    0.0000 C   0  0  0  0  0  0  0  0  0  0  0  0
    1.1042   -1.9750    0.0000 C   0  0  0  0  0  0  0  0  0  0  0  0
    0.3917   -2.3792    0.0000 O   0  0  0  0  0  0  0  0  0  0  0  0
   -0.3125   -1.9750    0.0000 C   0  0  0  0  0  0  0  0  0  0  0  0
    0.3917    0.0958    0.0000 O   0  0  0  0  0  0  0  0  0  0  0  0
    1.8167   -0.7292    0.0000 O   0  0  0  0  0  0  0  0  0  0  0  0
  2  1  1  0
  3  2  1  0
  4  1  2  0
  5  4  1  0
  6  5  1  0
  7  2  2  0
  8  1  1  0
  6  3  2  0
M  END

> <chembl_id>
CHEMBL79857

> <chembl_pref_name>
None

$$$$

     RDKit          2D

 10 10  0  0  0  0  0  0  0  0999 V2000
   20.5580   -1.8875    0.0000 C   0  0  0  0  0  0  0  0  0  0  0  0
   20.5569   -2.7149    0.0000 C   0  0  0  0  0  0  0  0  0  0  0  0
   21.2718   -3.1278    0.0000 N   0  0  0  0  0  0  0  0  0  0  0  0
   21.9882   -2.7145    0.0000 C   0  0  0  0  0  0  0  0  0  0  0  0
   21.9854   -1.8839    0.0000 C   0  0  0  0  0  0  0  0  0  0  0  0
   21.2700   -1.4747    0.0000 C   0  0  0  0  0  0  0  0  0  0  0  0
   22.7034   -3.1258    0.0000 O   0  0  0  0  0  0  0  0  0  0  0  0
   21.2716   -3.9529    0.0000 C   0  0  0  0  0  0  0  0  0  0  0  0
   23.4172   -2.7122    0.0000 C   0  0  0  0  0  0  0  0  0  0  0  0
   19.8435   -1.4752    0.0000 F   0  0  0  0  0  0  0  0  0  0  0  0
  1  2  2  0
  2  3  1  0
  3  4  2  0
  4  5  1  0
  5  6  2  0
  6  1  1  0
  4  7  1  0
  3  8  1  0
  7  9  1  0
  1 10  1  0
M  CHG  1   3   1
M  END

> <chembl_id>
CHEMBL3558896

> <chembl_pref_name>
None

$$$$

     RDKit          2D

 10 10  0  0  0  0  0  0  0  0999 V2000
    4.4258   -4.4686    0.0000 C   0  0  0  0  0  0  0  0  0  0  0  0
    4.4245   -5.2961    0.0000 C   0  0  0  0  0  0  0  0  0  0  0  0
    5.1375   -5.7090    0.0000 C   0  0  0  0  0  0  0  0  0  0  0  0
    5.8567   -5.2956    0.0000 C   0  0  0  0  0  0  0  0  0  0  0  0
    5.8535   -4.4645    0.0000 C   0  0  0  0  0  0  0  0  0  0  0  0
    5.1355   -4.0558    0.0000 C   0  0  0  0  0  0  0  0  0  0  0  0
    5.1315   -3.2308    0.0000 O   0  0  0  0  0  0  0  0  0  0  0  0
    6.5716   -5.7074    0.0000 C   0  0  0  0  0  0  0  0  0  0  0  0
    7.2856   -5.2943    0.0000 C   0  0  0  0  0  0  0  0  0  0  0  0
    8.0004   -5.7061    0.0000 C   0  0  0  0  0  0  0  0  0  0  0  0
  2  3  1  0
  5  6  2  0
  6  1  1  0
  1  2  2  0
  6  7  1  0
  3  4  2  0
  4  8  1  0
  8  9  1  0
  4  5  1  0
  9 10  1  0
M  END

> <chembl_id>
CHEMBL467077

> <chembl_pref_name>
None

$$$$

     RDKit          2D

  9  9  0  0  0  0  0  0  0  0999 V2000
    0.0535    0.1873    0.0000 C   0  0  0  0  0  0  0  0  0  0  0  0
   -0.6610   -1.0502    0.0000 C   0  0  0  0  0  0  0  0  0  0  0  0
    0.0535   -1.4627    0.0000 C   0  0  0  0  0  0  0  0  0  0  0  0
    0.0535    1.0123    0.0000 C   0  0  0  0  0  0  0  0  0  0  0  0
    0.7679   -0.2252    0.0000 C   0  0  0  0  0  0  0  0  0  0  0  0
   -0.6610    1.4248    0.0000 O   0  0  0  0  0  0  0  0  0  0  0  0
    0.7679    1.4248    0.0000 O   0  0  0  0  0  0  0  0  0  0  0  0
   -0.6610   -0.2252    0.0000 N   0  0  0  0  0  0  0  0  0  0  0  0
    0.7679   -1.0502    0.0000 N   0  0  0  0  0  0  0  0  0  0  0  0
  1  4  1  0
  1  5  1  0
  1  8  2  0
  2  3  2  0
  2  8  1  0
  3  9  1  0
  4  6  2  0
  4  7  1  0
  5  9  2  0
M  END

> <chembl_id>
CHEMBL613

> <chembl_pref_name>
PYRAZINOIC ACID

$$$$

     RDKit          2D

 11 11  0  0  0  0  0  0  0  0999 V2000
   14.5333  -10.8542    0.0000 C   0  0  0  0  0  0  0  0  0  0  0  0
   13.8208  -11.2667    0.0000 C   0  0  0  0  0  0  0  0  0  0  0  0
   13.1083  -10.8542    0.0000 C   0  0  0  0  0  0  0  0  0  0  0  0
   14.5333  -10.0208    0.0000 C   0  0  0  0  0  0  0  0  0  0  0  0
   13.8208  -12.0917    0.0000 C   0  0  0  0  0  0  0  0  0  0  0  0
   15.2542  -11.2667    0.0000 N   0  0  0  0  0  0  0  0  0  0  0  0
   13.1083  -10.0292    0.0000 C   0  0  0  0  0  0  0  0  0  0  0  0
   13.8208   -9.6083    0.0000 C   0  0  0  0  0  0  0  0  0  0  0  0
   13.1083  -12.5042    0.0000 C   0  0  0  0  0  0  0  0  0  0  0  0
   14.5333  -12.5042    0.0000 C   0  0  0  0  0  0  0  0  0  0  0  0
   13.8167   -8.7833    0.0000 C   0  0  0  0  0  0  0  0  0  0  0  0
  2  1  2  0
  3  2  1  0
  4  1  1  0
  5  2  1  0
  6  1  1  0
  7  8  1  0
  8  4  2  0
  9  5  1  0
 10  5  1  0
 11  8  1  0
  7  3  2  0
M  END

> <chembl_id>
CHEMBL2109689

> <chembl_pref_name>
None

$$$$

     RDKit          2D

  9  9  0  0  0  0  0  0  0  0999 V2000
    0.1292   -1.2542    0.0000 N   0  0  0  0  0  0  0  0  0  0  0  0
   -1.1000   -0.5375    0.0000 C   0  0  0  0  0  0  0  0  0  0  0  0
    1.3667   -0.5375    0.0000 N   0  0  0  0  0  0  0  0  0  0  0  0
   -1.1000    0.8958    0.0000 C   0  0  0  0  0  0  0  0  0  0  0  0
    0.1292    1.6125    0.0000 C   0  0  0  0  0  0  0  0  0  0  0  0
    1.3667    0.8958    0.0000 C   0  0  0  0  0  0  0  0  0  0  0  0
   -2.3458   -1.2542    0.0000 O   0  0  0  0  0  0  0  0  0  0  0  0
   -2.3458    1.6125    0.0000 C   0  0  0  0  0  0  0  0  0  0  0  0
    2.6042    1.6125    0.0000 C   0  0  0  0  0  0  0  0  0  0  0  0
  2  1  1  0
  3  1  1  0
  4  2  1  0
  5  6  1  0
  6  3  2  0
  7  2  2  0
  8  4  1  0
  9  6  1  0
  4  5  2  0
M  END

> <chembl_id>
CHEMBL2105939

> <chembl_pref_name>
CETOHEXAZINE

$$$$

     RDKit          2D

 11 11  0  0  0  0  0  0  0  0999 V2000
    2.1466    0.0000    0.0000 O   0  0  0  0  0  0  0  0  0  0  0  0
    1.4298   -1.2404    0.0000 C   0  0  0  0  0  0  0  0  0  0  0  0
    2.1466   -1.6601    0.0000 C   0  0  0  0  0  0  0  0  0  0  0  0
    0.7167   -1.6601    0.0000 C   0  0  0  0  0  0  0  0  0  0  0  0
    1.4298   -2.8894    0.0000 C   0  0  0  0  0  0  0  0  0  0  0  0
    2.1466   -2.4809    0.0000 C   0  0  0  0  0  0  0  0  0  0  0  0
    0.7167   -2.4809    0.0000 C   0  0  0  0  0  0  0  0  0  0  0  0
    1.4298   -0.4159    0.0000 C   0  0  0  0  0  0  0  0  0  0  0  0
    2.8597   -1.2404    0.0000 C   0  0  0  0  0  0  0  0  0  0  0  0
    0.0000   -1.2404    0.0000 C   0  0  0  0  0  0  0  0  0  0  0  0
    1.4298   -3.7139    0.0000 C   0  0  0  0  0  0  0  0  0  0  0  0
  1  8  2  0
  2  3  2  0
  2  4  1  0
  2  8  1  0
  3  6  1  0
  3  9  1  0
  4  7  2  0
  4 10  1  0
  5  6  2  0
  5  7  1  0
  5 11  1  0
M  END

> <chembl_id>
CHEMBL3560744

> <chembl_pref_name>
None

$$$$

     RDKit          2D

 11 12  0  0  0  0  0  0  0  0999 V2000
   -3.6486    1.3517    0.0000 N   0  0  0  0  0  0  0  0  0  0  0  0
   -2.6111    0.7486    0.0000 C   0  0  0  0  0  0  0  0  0  0  0  0
   -1.2964    1.4973    0.0000 C   0  0  0  0  0  0  0  0  0  0  0  0
    0.0000    0.7486    0.0000 C   0  0  0  0  0  0  0  0  0  0  0  0
    1.2964    1.4973    0.0000 C   0  0  0  0  0  0  0  0  0  0  0  0
    2.5929    0.7486    0.0000 C   0  0  0  0  0  0  0  0  0  0  0  0
    2.5929   -0.7486    0.0000 C   0  0  0  0  0  0  0  0  0  0  0  0
    1.2964   -1.4973    0.0000 C   0  0  0  0  0  0  0  0  0  0  0  0
    0.0000   -0.7486    0.0000 C   0  0  0  0  0  0  0  0  0  0  0  0
   -1.2964   -1.4973    0.0000 C   0  0  0  0  0  0  0  0  0  0  0  0
   -2.6111   -0.7486    0.0000 C   0  0  0  0  0  0  0  0  0  0  0  0
  1  2  1  0
  2  3  1  0
  3  4  1  0
  4  5  2  0
  5  6  1  0
  6  7  2  0
  7  8  1  0
  8  9  2  0
  9  4  1  0
  9 10  1  0
 10 11  2  0
 11  2  1  0
M  END

> <chembl_id>
CHEMBL151814

> <chembl_pref_name>
None

$$$$

     RDKit          2D

  9  9  0  0  0  0  0  0  0  0999 V2000
    1.7258   -0.0196    0.0000 Cl  0  0  0  0  0  0  0  0  0  0  0  0
    1.0114   -1.2571    0.0000 C   0  0  0  0  0  0  0  0  0  0  0  0
    1.7258   -0.8446    0.0000 C   0  0  0  0  0  0  0  0  0  0  0  0
    1.0114   -2.0821    0.0000 C   0  0  0  0  0  0  0  0  0  0  0  0
    2.4403   -1.2571    0.0000 C   0  0  0  0  0  0  0  0  0  0  0  0
    0.2969   -0.8446    0.0000 C   0  0  0  0  0  0  0  0  0  0  0  0
    1.7258   -2.4946    0.0000 C   0  0  0  0  0  0  0  0  0  0  0  0
    2.4403   -2.0821    0.0000 C   0  0  0  0  0  0  0  0  0  0  0  0
   -0.4176   -1.2571    0.0000 C   0  0  0  0  0  0  0  0  0  0  0  0
  1  3  1  0
  2  3  1  0
  2  4  2  0
  2  6  1  0
  3  5  2  0
  4  7  1  0
  5  8  1  0
  6  9  2  0
  7  8  2  0
M  END

> <chembl_id>
CHEMBL1564623

> <chembl_pref_name>
None

$$$$

     RDKit          2D

 10 11  0  0  0  0  0  0  0  0999 V2000
    1.8511    0.8870    0.0000 O   0  0  0  0  0  0  0  0  0  0  0  0
    2.5158    1.3757    0.0000 C   0  0  0  0  0  0  0  0  0  0  0  0
    2.2582    2.1596    0.0000 C   0  0  0  0  0  0  0  0  0  0  0  0
    1.4307    2.1553    0.0000 C   0  0  0  0  0  0  0  0  0  0  0  0
    1.1832    1.3692    0.0000 C   0  0  0  0  0  0  0  0  0  0  0  0
    3.2988    1.1204    0.0000 C   0  0  0  0  0  0  0  0  0  0  0  0
    3.5573    0.3370    0.0000 C   0  0  0  0  0  0  0  0  0  0  0  0
    4.3823    0.3407    0.0000 C   0  0  0  0  0  0  0  0  0  0  0  0
    4.6337    1.1265    0.0000 C   0  0  0  0  0  0  0  0  0  0  0  0
    3.9641    1.6083    0.0000 N   0  0  0  0  0  0  0  0  0  0  0  0
  5  1  1  0
  6  7  1  0
  1  2  1  0
  2  3  2  0
  3  4  1  0
  4  5  2  0
  7  8  1  0
  8  9  1  0
  9 10  1  0
 10  6  1  0
  6  2  1  6
M  END

> <chembl_id>
CHEMBL461088

> <chembl_pref_name>
None

$$$$

     RDKit          2D

  9  9  0  0  0  0  0  0  0  0999 V2000
   -2.9334  -18.7000    0.0000 C   0  0  0  0  0  0  0  0  0  0  0  0
   -2.1084  -18.7000    0.0000 C   0  0  0  0  0  0  0  0  0  0  0  0
   -1.8516  -17.9159    0.0000 C   0  0  0  0  0  0  0  0  0  0  0  0
   -2.5209  -17.4292    0.0000 O   0  0  0  0  0  0  0  0  0  0  0  0
   -3.1859  -17.9159    0.0000 C   0  0  0  0  0  0  0  0  0  0  0  0
   -1.0666  -17.6621    0.0000 C   0  0  0  0  0  0  0  0  0  0  0  0
   -3.9706  -17.6613    0.0000 C   0  0  0  0  0  0  0  0  0  0  0  0
   -4.1425  -16.8544    0.0000 O   0  0  0  0  0  0  0  0  0  0  0  0
   -4.5835  -18.2136    0.0000 C   0  0  0  0  0  0  0  0  0  0  0  0
  4  5  1  0
  5  1  2  0
  1  2  1  0
  3  6  1  0
  5  7  1  0
  2  3  2  0
  7  8  2  0
  3  4  1  0
  7  9  1  0
M  END

> <chembl_id>
CHEMBL455506

> <chembl_pref_name>
None

$$$$

     RDKit          2D

  9  9  0  0  0  0  0  0  0  0999 V2000
   -0.1804    1.1102    0.0000 O   0  0  0  0  0  0  0  0  0  0  0  0
   -1.6325    0.0552    0.0000 O   0  0  0  0  0  0  0  0  0  0  0  0
   -0.1804    0.2852    0.0000 N   0  0  0  0  0  0  0  0  0  0  0  0
    0.2321   -0.9843    0.0000 N   0  0  0  0  0  0  0  0  0  0  0  0
   -0.5929   -0.9843    0.0000 N   0  0  0  0  0  0  0  0  0  0  0  0
    0.4870   -0.1997    0.0000 C   0  0  0  0  0  0  0  0  0  0  0  0
   -0.8478   -0.1997    0.0000 C   0  0  0  0  0  0  0  0  0  0  0  0
    1.2717    0.0552    0.0000 C   0  0  0  0  0  0  0  0  0  0  0  0
    1.4432    0.8622    0.0000 C   0  0  0  0  0  0  0  0  0  0  0  0
  1  3  1  0
  2  7  2  0
  3  6  1  0
  3  7  1  0
  4  5  1  0
  4  6  2  0
  5  7  1  0
  6  8  1  0
  8  9  1  0
M  END

> <chembl_id>
CHEMBL1990845

> <chembl_pref_name>
None

$$$$

     RDKit          2D

  9  9  0  0  0  0  0  0  0  0999 V2000
    6.5417   -3.6292    0.0000 C   0  0  0  0  0  0  0  0  0  0  0  0
    6.5417   -4.4542    0.0000 C   0  0  0  0  0  0  0  0  0  0  0  0
    5.8292   -3.2125    0.0000 C   0  0  0  0  0  0  0  0  0  0  0  0
    5.1167   -3.6292    0.0000 C   0  0  0  0  0  0  0  0  0  0  0  0
    5.8292   -4.8667    0.0000 O   0  0  0  0  0  0  0  0  0  0  0  0
    5.1167   -4.4542    0.0000 C   0  0  0  0  0  0  0  0  0  0  0  0
    7.2625   -4.8667    0.0000 O   0  0  0  0  0  0  0  0  0  0  0  0
    5.8292   -2.3875    0.0000 O   0  0  0  0  0  0  0  0  0  0  0  0
    4.4042   -4.8667    0.0000 C   0  0  0  0  0  0  0  0  0  0  0  0
  2  1  1  0
  3  1  2  0
  4  3  1  0
  5  2  1  0
  6  4  2  0
  7  2  2  0
  8  3  1  0
  9  6  1  0
  5  6  1  0
M  END

> <chembl_id>
CHEMBL54907

> <chembl_pref_name>
4-HYDROXY-6-METHYLPYRAN-2-ONE

$$$$

     RDKit          2D

 10 11  0  0  0  0  0  0  0  0999 V2000
    4.2233   -0.9900    0.0000 N   0  0  0  0  0  0  0  0  0  0  0  0
    4.9378    0.2475    0.0000 N   0  0  0  0  0  0  0  0  0  0  0  0
    4.2233    1.4850    0.0000 N   0  0  0  0  0  0  0  0  0  0  0  0
    3.5088    0.2475    0.0000 C   0  0  0  0  0  0  0  0  0  0  0  0
    3.5088   -0.5775    0.0000 C   0  0  0  0  0  0  0  0  0  0  0  0
    4.2233    0.6600    0.0000 C   0  0  0  0  0  0  0  0  0  0  0  0
    2.7242    0.5024    0.0000 C   0  0  0  0  0  0  0  0  0  0  0  0
    2.7242   -0.8324    0.0000 C   0  0  0  0  0  0  0  0  0  0  0  0
    4.9378   -0.5775    0.0000 C   0  0  0  0  0  0  0  0  0  0  0  0
    2.2393   -0.1650    0.0000 C   0  0  0  0  0  0  0  0  0  0  0  0
  1  5  1  0
  1  9  2  0
  2  6  2  0
  2  9  1  0
  3  6  1  0
  4  5  2  0
  4  6  1  0
  4  7  1  0
  5  8  1  0
  7 10  1  0
  8 10  1  0
M  END

> <chembl_id>
CHEMBL1740972

> <chembl_pref_name>
None

$$$$

     RDKit          2D

 11 11  0  0  0  0  0  0  0  0999 V2000
    2.9538    1.9500    0.0000 N   0  0  0  0  0  0  0  0  0  0  0  0
    3.6682   -0.1125    0.0000 C   0  0  0  0  0  0  0  0  0  0  0  0
    3.6682    0.7125    0.0000 C   0  0  0  0  0  0  0  0  0  0  0  0
    2.9538    1.1250    0.0000 C   0  0  0  0  0  0  0  0  0  0  0  0
    4.3827   -0.5250    0.0000 C   0  0  0  0  0  0  0  0  0  0  0  0
    2.9538   -0.5250    0.0000 C   0  0  0  0  0  0  0  0  0  0  0  0
    4.3827   -1.3500    0.0000 C   0  0  0  0  0  0  0  0  0  0  0  0
    2.9538   -1.3500    0.0000 C   0  0  0  0  0  0  0  0  0  0  0  0
    4.3827    1.1250    0.0000 C   0  0  0  0  0  0  0  0  0  0  0  0
    3.6682   -1.7625    0.0000 C   0  0  0  0  0  0  0  0  0  0  0  0
    2.2393    0.7125    0.0000 C   0  0  0  0  0  0  0  0  0  0  0  0
  1  4  1  0
  2  3  1  0
  2  5  2  0
  2  6  1  0
  3  4  1  0
  3  9  1  0
  4 11  1  0
  5  7  1  0
  6  8  2  0
  7 10  2  0
  8 10  1  0
M  END

> <chembl_id>
CHEMBL2009950

> <chembl_pref_name>
None

$$$$

     RDKit          2D

  9  9  0  0  0  0  0  0  0  0999 V2000
    1.2625    1.4833    0.0000 O   0  0  0  0  0  0  0  0  0  0  0  0
    1.2625    0.6500    0.0000 C   0  0  0  0  0  0  0  0  0  0  0  0
    0.5542    0.2333    0.0000 C   0  0  0  0  0  0  0  0  0  0  0  0
   -0.8708   -0.6000    0.0000 C   0  0  0  0  0  0  0  0  0  0  0  0
   -0.1625    0.6458    0.0000 C   0  0  0  0  0  0  0  0  0  0  0  0
    0.5542   -0.6000    0.0000 C   0  0  0  0  0  0  0  0  0  0  0  0
   -0.1625   -1.0125    0.0000 C   0  0  0  0  0  0  0  0  0  0  0  0
   -0.8708    0.2333    0.0000 C   0  0  0  0  0  0  0  0  0  0  0  0
   -1.5875   -1.0125    0.0000 C   0  0  0  0  0  0  0  0  0  0  0  0
  2  1  2  0
  3  2  1  0
  4  7  1  0
  5  3  2  0
  6  3  1  0
  7  6  2  0
  8  5  1  0
  9  4  1  0
  4  8  2  0
M  END

> <chembl_id>
CHEMBL190927

> <chembl_pref_name>
None

$$$$

     RDKit          2D

  9  9  0  0  0  0  0  0  0  0999 V2000
    0.7500   -1.0323    0.0000 N   0  0  0  0  0  0  0  0  0  0  0  0
    1.2135    0.3943    0.0000 C   0  0  0  0  0  0  0  0  0  0  0  0
   -1.2135    0.3943    0.0000 N   0  0  0  0  0  0  0  0  0  0  0  0
   -0.7500   -1.0323    0.0000 C   0  0  0  0  0  0  0  0  0  0  0  0
    0.0000    1.2760    0.0000 C   0  0  0  0  0  0  0  0  0  0  0  0
    2.6375    0.8603    0.0000 C   0  0  0  0  0  0  0  0  0  0  0  0
    4.0879    2.7019    0.0000 N   0  0  0  0  0  0  0  0  0  0  0  0
    2.9474    2.3287    0.0000 C   0  0  0  0  0  0  0  0  0  0  0  0
    3.5307    0.0589    0.0000 C   0  0  0  0  0  0  0  0  0  0  0  0
  1  2  1  0
  1  4  2  0
  3  4  1  0
  2  5  2  0
  3  5  1  0
  2  6  1  0
  6  8  1  0
  7  8  1  0
  6  9  1  1
M  END

> <chembl_id>
CHEMBL1193901

> <chembl_pref_name>
None

$$$$

     RDKit          2D

 11 12  0  0  0  0  0  0  0  0999 V2000
    8.2988  -14.7881    0.0000 N   0  0  0  0  0  0  0  0  0  0  0  0
    7.5843  -14.3756    0.0000 C   0  0  0  0  0  0  0  0  0  0  0  0
    7.5843  -13.5506    0.0000 N   0  0  0  0  0  0  0  0  0  0  0  0
    8.2988  -13.1381    0.0000 C   0  0  0  0  0  0  0  0  0  0  0  0
    9.0132  -13.5506    0.0000 C   0  0  0  0  0  0  0  0  0  0  0  0
    9.7277  -13.1381    0.0000 C   0  0  0  0  0  0  0  0  0  0  0  0
   10.4421  -13.5506    0.0000 C   0  0  0  0  0  0  0  0  0  0  0  0
   10.4421  -14.3756    0.0000 C   0  0  0  0  0  0  0  0  0  0  0  0
    9.7277  -14.7881    0.0000 C   0  0  0  0  0  0  0  0  0  0  0  0
    9.0132  -14.3756    0.0000 C   0  0  0  0  0  0  0  0  0  0  0  0
    6.8698  -14.7881    0.0000 N   0  0  0  0  0  0  0  0  0  0  0  0
  1  2  2  0
  2  3  1  0
  3  4  1  0
  4  5  1  0
  5  6  1  0
  6  7  2  0
  7  8  1  0
  8  9  2  0
  9 10  1  0
  1 10  1  0
  5 10  2  0
  2 11  1  0
M  END

> <chembl_id>
CHEMBL25212

> <chembl_pref_name>
None

$$$$

     RDKit          2D

  9  9  0  0  0  0  0  0  0  0999 V2000
    2.8645   -1.2318    0.0000 Cl  0  0  0  0  0  0  0  0  0  0  0  0
    1.4323   -1.2318    0.0000 C   0  0  0  0  0  0  0  0  0  0  0  0
    1.4323   -0.4068    0.0000 C   0  0  0  0  0  0  0  0  0  0  0  0
    0.7161   -1.6499    0.0000 C   0  0  0  0  0  0  0  0  0  0  0  0
    0.7161    0.0000    0.0000 C   0  0  0  0  0  0  0  0  0  0  0  0
    2.1483   -1.6499    0.0000 C   0  0  0  0  0  0  0  0  0  0  0  0
    0.0000   -1.2318    0.0000 C   0  0  0  0  0  0  0  0  0  0  0  0
    0.0000   -0.4068    0.0000 C   0  0  0  0  0  0  0  0  0  0  0  0
    2.1483    0.0000    0.0000 C   0  0  0  0  0  0  0  0  0  0  0  0
  1  6  1  0
  2  3  1  0
  2  4  2  0
  2  6  1  0
  3  5  2  0
  3  9  1  0
  4  7  1  0
  5  8  1  0
  7  8  2  0
M  END

> <chembl_id>
CHEMBL3183322

> <chembl_pref_name>
None

$$$$

     RDKit          2D

 11 12  0  0  0  0  0  0  0  0999 V2000
    7.4137   -5.9227    0.0000 N   0  0  0  0  0  0  0  0  0  0  0  0
    8.2218   -5.7366    0.0000 N   0  0  0  0  0  0  0  0  0  0  0  0
    8.5790   -4.9918    0.0000 C   0  0  0  0  0  0  0  0  0  0  0  0
    8.2218   -4.2470    0.0000 C   0  0  0  0  0  0  0  0  0  0  0  0
    7.4137   -4.0610    0.0000 C   0  0  0  0  0  0  0  0  0  0  0  0
    6.7691   -4.5785    0.0000 C   0  0  0  0  0  0  0  0  0  0  0  0
    6.7691   -5.4051    0.0000 C   0  0  0  0  0  0  0  0  0  0  0  0
    6.0518   -5.8184    0.0000 C   0  0  0  0  0  0  0  0  0  0  0  0
    5.3346   -5.4051    0.0000 C   0  0  0  0  0  0  0  0  0  0  0  0
    5.3346   -4.5785    0.0000 C   0  0  0  0  0  0  0  0  0  0  0  0
    6.0518   -4.1653    0.0000 C   0  0  0  0  0  0  0  0  0  0  0  0
  1  2  1  0
  2  3  2  0
  3  4  1  0
  4  5  2  0
  5  6  1  0
  6  7  1  0
  1  7  1  0
  7  8  2  0
  9  8  1  0
 10  9  2  0
 11 10  1  0
  6 11  2  0
M  END

> <chembl_id>
CHEMBL4297264

> <chembl_pref_name>
BENZODIAZEPINE

$$$$

     RDKit          2D

 10 10  0  0  0  0  0  0  0  0999 V2000
   -4.7073    2.1781    0.0000 C   0  0  0  0  0  0  0  0  0  0  0  0
   -4.7084    1.3511    0.0000 C   0  0  0  0  0  0  0  0  0  0  0  0
   -3.9940    0.9385    0.0000 C   0  0  0  0  0  0  0  0  0  0  0  0
   -3.2780    1.3516    0.0000 C   0  0  0  0  0  0  0  0  0  0  0  0
   -3.2808    2.1816    0.0000 C   0  0  0  0  0  0  0  0  0  0  0  0
   -3.9958    2.5906    0.0000 C   0  0  0  0  0  0  0  0  0  0  0  0
   -2.5631    0.9404    0.0000 O   0  0  0  0  0  0  0  0  0  0  0  0
   -1.8497    1.3539    0.0000 C   0  0  0  0  0  0  0  0  0  0  0  0
   -1.1350    0.9427    0.0000 C   0  0  0  0  0  0  0  0  0  0  0  0
   -1.8510    2.1785    0.0000 O   0  0  0  0  0  0  0  0  0  0  0  0
  2  3  1  0
  5  6  2  0
  6  1  1  0
  1  2  2  0
  4  7  1  0
  3  4  2  0
  7  8  1  0
  8  9  1  0
  4  5  1  0
  8 10  2  0
M  END

> <chembl_id>
CHEMBL289559

> <chembl_pref_name>
ACETIC ACID PHENYL ESTER

$$$$

     RDKit          2D

  6  6  0  0  0  0  0  0  0  0999 V2000
   16.7671  -14.0884    0.0000 S   0  0  0  0  0  0  0  0  0  0  0  0
   17.5462  -13.8366    0.0000 C   0  0  0  0  0  0  0  0  0  0  0  0
   18.0251  -14.5000    0.0000 N   0  0  0  0  0  0  0  0  0  0  0  0
   17.5462  -15.1633    0.0000 C   0  0  0  0  0  0  0  0  0  0  0  0
   16.7671  -14.9074    0.0000 C   0  0  0  0  0  0  0  0  0  0  0  0
   18.8441  -14.5000    0.0000 C   0  0  0  0  0  0  0  0  0  0  0  0
  1  2  1  0
  2  3  2  0
  3  4  1  0
  4  5  2  0
  1  5  1  0
  3  6  1  0
M  CHG  1   3   1
M  END

> <chembl_id>
CHEMBL1230156

> <chembl_pref_name>
None

$$$$

     RDKit          2D

  8  8  0  0  0  0  0  0  0  0999 V2000
   -2.4689  -18.7123    0.0000 C   0  0  0  0  0  0  0  0  0  0  0  0
   -1.6439  -18.7123    0.0000 C   0  0  0  0  0  0  0  0  0  0  0  0
   -3.2940  -18.7123    0.0000 C   0  0  0  0  0  0  0  0  0  0  0  0
   -3.7088  -19.4270    0.0000 C   0  0  0  0  0  0  0  0  0  0  0  0
   -4.5338  -19.4270    0.0000 C   0  0  0  0  0  0  0  0  0  0  0  0
   -4.9441  -18.7123    0.0000 C   0  0  0  0  0  0  0  0  0  0  0  0
   -4.5338  -17.9975    0.0000 C   0  0  0  0  0  0  0  0  0  0  0  0
   -3.7088  -17.9975    0.0000 C   0  0  0  0  0  0  0  0  0  0  0  0
  1  2  3  0
  3  4  1  0
  4  5  2  0
  5  6  1  0
  6  7  2  0
  7  8  1  0
  3  8  2  0
  1  3  1  0
M  END

> <chembl_id>
CHEMBL234833

> <chembl_pref_name>
PHENYLACETYLENE

$$$$

     RDKit          2D

 11 12  0  0  0  0  0  0  0  0999 V2000
   -7.9063   -1.5000    0.0000 C   0  0  0  0  0  0  0  0  0  0  0  0
   -7.9063   -3.0000    0.0000 C   0  0  0  0  0  0  0  0  0  0  0  0
   -6.6073   -3.7500    0.0000 C   0  0  0  0  0  0  0  0  0  0  0  0
   -6.6073   -0.7500    0.0000 C   0  0  0  0  0  0  0  0  0  0  0  0
   -5.3083   -1.5000    0.0000 C   0  0  0  0  0  0  0  0  0  0  0  0
   -5.3083   -3.0000    0.0000 C   0  0  0  0  0  0  0  0  0  0  0  0
   -3.8817   -3.4635    0.0000 C   0  0  0  0  0  0  0  0  0  0  0  0
   -3.0000   -2.2500    0.0000 C   0  0  0  0  0  0  0  0  0  0  0  0
   -3.8817   -1.0365    0.0000 C   0  0  0  0  0  0  0  0  0  0  0  0
   -1.5000   -2.2500    0.0000 O   0  0  0  0  0  0  0  0  0  0  0  0
   -0.7500   -0.9510    0.0000 N   0  0  0  0  0  0  0  0  0  0  0  0
  1  2  2  0
  2  3  1  0
  3  6  2  0
  5  4  2  0
  4  1  1  0
  5  6  1  0
  6  7  1  0
  7  8  1  0
  8  9  1  0
  9  5  1  0
  8 10  1  0
 10 11  1  0
M  END

> <chembl_id>
CHEMBL3765912

> <chembl_pref_name>
None

$$$$

     RDKit          2D

 10 10  0  0  0  0  0  0  0  0999 V2000
    8.3197    3.0000    0.0000 C   0  0  0  0  0  0  0  0  0  0  0  0
    8.3197    4.5000    0.0000 C   0  0  0  0  0  0  0  0  0  0  0  0
    7.0207    5.2500    0.0000 C   0  0  0  0  0  0  0  0  0  0  0  0
    5.7216    4.5000    0.0000 C   0  0  0  0  0  0  0  0  0  0  0  0
    5.7216    3.0000    0.0000 C   0  0  0  0  0  0  0  0  0  0  0  0
    7.0207    2.2500    0.0000 C   0  0  0  0  0  0  0  0  0  0  0  0
    4.4226    2.2500    0.0000 C   0  0  0  0  0  0  0  0  0  0  0  0
    3.1236    3.0000    0.0000 O   0  0  0  0  0  0  0  0  0  0  0  0
    1.8245    2.2500    0.0000 N   0  0  0  0  0  0  0  0  0  0  0  0
    7.0207    0.7500    0.0000 O   0  0  0  0  0  0  0  0  0  0  0  0
  1  2  2  0
  2  3  1  0
  3  4  2  0
  4  5  1  0
  5  6  2  0
  6  1  1  0
  5  7  1  0
  7  8  1  0
  8  9  1  0
  6 10  1  0
M  END

> <chembl_id>
CHEMBL3765989

> <chembl_pref_name>
None

$$$$

     RDKit          2D

 10 10  0  0  0  0  0  0  0  0999 V2000
   -0.2875    1.4083    0.0000 C   0  0  0  0  0  0  0  0  0  0  0  0
   -0.2875    0.5833    0.0000 C   0  0  0  0  0  0  0  0  0  0  0  0
    0.4245    0.1750    0.0000 C   0  0  0  0  0  0  0  0  0  0  0  0
    1.1365    0.5833    0.0000 O   0  0  0  0  0  0  0  0  0  0  0  0
    1.1365    1.4083    0.0000 C   0  0  0  0  0  0  0  0  0  0  0  0
    0.4245    1.8250    0.0000 C   0  0  0  0  0  0  0  0  0  0  0  0
    0.4245    2.6500    0.0000 C   0  0  0  0  0  0  0  0  0  0  0  0
    1.1371    3.0636    0.0000 O   0  0  0  0  0  0  0  0  0  0  0  0
   -0.2918    3.0636    0.0000 O   0  0  0  0  0  0  0  0  0  0  0  0
    0.4245   -0.6500    0.0000 O   0  0  0  0  0  0  0  0  0  0  0  0
  3  4  1  0
  4  5  1  0
  5  6  2  0
  6  7  1  0
  1  2  2  0
  1  6  1  0
  7  8  1  0
  7  9  2  0
  2  3  1  0
  3 10  2  0
M  END

> <chembl_id>
CHEMBL216734

> <chembl_pref_name>
None

$$$$

     RDKit          2D

  9  9  0  0  0  0  0  0  0  0999 V2000
   -4.1491   -0.4701    0.0000 C   0  0  0  0  0  0  0  0  0  0  0  0
   -4.1503   -1.2962    0.0000 C   0  0  0  0  0  0  0  0  0  0  0  0
   -3.4365   -1.7083    0.0000 C   0  0  0  0  0  0  0  0  0  0  0  0
   -2.7212   -1.2957    0.0000 C   0  0  0  0  0  0  0  0  0  0  0  0
   -2.7241   -0.4665    0.0000 C   0  0  0  0  0  0  0  0  0  0  0  0
   -3.4383   -0.0579    0.0000 N   0  0  0  0  0  0  0  0  0  0  0  0
   -3.4408    0.7658    0.0000 C   0  0  0  0  0  0  0  0  0  0  0  0
   -2.7287    1.1797    0.0000 O   0  0  0  0  0  0  0  0  0  0  0  0
   -4.1554    1.1755    0.0000 C   0  0  0  0  0  0  0  0  0  0  0  0
  4  5  1  0
  5  6  2  0
  6  1  1  0
  2  3  1  0
  6  7  1  0
  7  8  2  0
  3  4  2  0
  7  9  1  0
  1  2  2  0
M  CHG  1   6   1
M  END

> <chembl_id>
CHEMBL1182268

> <chembl_pref_name>
None

$$$$

     RDKit          2D

 10 10  0  0  0  0  0  0  0  0999 V2000
    9.2830   -5.6354    0.0000 N   0  0  0  0  0  0  0  0  0  0  0  0
    8.5685   -6.0479    0.0000 C   0  0  0  0  0  0  0  0  0  0  0  0
    8.5685   -6.8729    0.0000 C   0  0  0  0  0  0  0  0  0  0  0  0
    9.2830   -7.2854    0.0000 C   0  0  0  0  0  0  0  0  0  0  0  0
    9.2830   -8.1104    0.0000 C   0  0  0  0  0  0  0  0  0  0  0  0
    8.5685   -8.5229    0.0000 C   0  0  0  0  0  0  0  0  0  0  0  0
    7.8540   -8.1104    0.0000 C   0  0  0  0  0  0  0  0  0  0  0  0
    7.8540   -7.2854    0.0000 C   0  0  0  0  0  0  0  0  0  0  0  0
    7.1395   -6.8729    0.0000 O   0  0  0  0  0  0  0  0  0  0  0  0
    9.9974   -6.8729    0.0000 O   0  0  0  0  0  0  0  0  0  0  0  0
  2  3  1  0
  3  4  1  0
  4  5  2  0
  5  6  1  0
  6  7  2  0
  7  8  1  0
  3  8  2  0
  1  2  1  0
  8  9  1  0
  4 10  1  0
M  END

> <chembl_id>
CHEMBL3139293

> <chembl_pref_name>
None

$$$$

     RDKit          2D

 10 10  0  0  0  0  0  0  0  0999 V2000
   -0.8941    1.3413    0.0000 O   0  0  0  0  0  0  0  0  0  0  0  0
   -1.5682    0.8657    0.0000 C   0  0  0  0  0  0  0  0  0  0  0  0
   -1.3242    0.0776    0.0000 C   0  0  0  0  0  0  0  0  0  0  0  0
   -0.4993    0.0662    0.0000 C   0  0  0  0  0  0  0  0  0  0  0  0
   -0.2335    0.8472    0.0000 C   0  0  0  0  0  0  0  0  0  0  0  0
   -1.8183   -0.5830    0.0000 C   0  0  0  0  0  0  0  0  0  0  0  0
   -1.4932   -1.3413    0.0000 O   0  0  0  0  0  0  0  0  0  0  0  0
   -2.6375   -0.4854    0.0000 O   0  0  0  0  0  0  0  0  0  0  0  0
   -0.0236   -0.6079    0.0000 C   0  0  0  0  0  0  0  0  0  0  0  0
    0.7929   -0.4902    0.0000 N   0  0  0  0  0  0  0  0  0  0  0  0
  1  2  1  0
  2  3  2  0
  3  4  1  0
  4  5  2  0
  1  5  1  0
  6  7  2  0
  6  8  1  0
  3  6  1  0
  9 10  1  0
  4  9  1  0
M  END

> <chembl_id>
CHEMBL2220089

> <chembl_pref_name>
None

$$$$

     RDKit          2D

 10 10  0  0  0  0  0  0  0  0999 V2000
   12.7701   -8.6656    0.0000 C   0  0  0  0  0  0  0  0  0  0  0  0
   12.7689   -9.4925    0.0000 C   0  0  0  0  0  0  0  0  0  0  0  0
   13.4833   -9.9051    0.0000 C   0  0  0  0  0  0  0  0  0  0  0  0
   14.1993   -9.4920    0.0000 C   0  0  0  0  0  0  0  0  0  0  0  0
   14.1964   -8.6619    0.0000 C   0  0  0  0  0  0  0  0  0  0  0  0
   13.4815   -8.2531    0.0000 C   0  0  0  0  0  0  0  0  0  0  0  0
   13.4831  -10.7296    0.0000 C   0  0  0  0  0  0  0  0  0  0  0  0
   12.7690  -11.1416    0.0000 N   0  0  0  0  0  0  0  0  0  0  0  0
   14.1970  -11.1420    0.0000 N   0  0  0  0  0  0  0  0  0  0  0  0
   14.9089   -8.2470    0.0000 N   0  0  0  0  0  0  0  0  0  0  0  0
  1  2  2  0
  2  3  1  0
  3  4  2  0
  4  5  1  0
  5  6  2  0
  6  1  1  0
  3  7  1  0
  7  8  2  0
  7  9  1  0
  5 10  1  0
M  END

> <chembl_id>
CHEMBL3302996

> <chembl_pref_name>
None

$$$$

     RDKit          2D

  7  7  0  0  0  0  0  0  0  0999 V2000
   -4.5130  -14.0412    0.0000 C   0  0  0  0  0  0  0  0  0  0  0  0
   -4.7327  -14.8374    0.0000 C   0  0  0  0  0  0  0  0  0  0  0  0
   -4.0419  -15.2873    0.0000 O   0  0  0  0  0  0  0  0  0  0  0  0
   -3.3977  -14.7733    0.0000 C   0  0  0  0  0  0  0  0  0  0  0  0
   -3.6889  -14.0016    0.0000 C   0  0  0  0  0  0  0  0  0  0  0  0
   -2.6013  -14.9888    0.0000 C   0  0  0  0  0  0  0  0  0  0  0  0
   -2.3919  -15.7869    0.0000 O   0  0  0  0  0  0  0  0  0  0  0  0
  2  3  1  0
  3  4  1  0
  4  5  2  0
  5  1  1  0
  1  2  2  0
  4  6  1  0
  6  7  1  0
M  END

> <chembl_id>
CHEMBL308187

> <chembl_pref_name>
FURFURYL ALCOHOL

$$$$

     RDKit          2D

 10 10  0  0  0  0  0  0  0  0999 V2000
    5.4707    4.0245    0.0000 C   0  0  0  0  0  0  0  0  0  0  0  0
    5.4707    5.5245    0.0000 C   0  0  0  0  0  0  0  0  0  0  0  0
    4.1716    6.2745    0.0000 C   0  0  0  0  0  0  0  0  0  0  0  0
    2.8726    5.5245    0.0000 C   0  0  0  0  0  0  0  0  0  0  0  0
    2.8726    4.0245    0.0000 C   0  0  0  0  0  0  0  0  0  0  0  0
    4.1716    3.2745    0.0000 C   0  0  0  0  0  0  0  0  0  0  0  0
    1.5736    3.2745    0.0000 C   0  0  0  0  0  0  0  0  0  0  0  0
    1.5736    1.7745    0.0000 O   0  0  0  0  0  0  0  0  0  0  0  0
    0.2745    1.0245    0.0000 N   0  0  0  0  0  0  0  0  0  0  0  0
    6.7697    6.2745    0.0000 F   0  0  0  0  0  0  0  0  0  0  0  0
  1  2  2  0
  2  3  1  0
  3  4  2  0
  4  5  1  0
  5  6  2  0
  6  1  1  0
  5  7  1  0
  7  8  1  0
  8  9  1  0
  2 10  1  0
M  END

> <chembl_id>
CHEMBL3765976

> <chembl_pref_name>
None

$$$$

     RDKit          2D

  5  5  0  0  0  0  0  0  0  0999 V2000
   -0.9833   -3.7917    0.0000 N   0  0  0  0  0  0  0  0  0  0  0  0
   -1.6500   -3.3125    0.0000 O   0  0  0  0  0  0  0  0  0  0  0  0
   -2.0625   -4.5792    0.0000 C   0  0  0  0  0  0  0  0  0  0  0  0
   -2.3208   -3.7917    0.0000 C   0  0  0  0  0  0  0  0  0  0  0  0
   -1.2375   -4.5792    0.0000 C   0  0  0  0  0  0  0  0  0  0  0  0
  2  1  1  0
  3  5  1  0
  4  2  1  0
  5  1  2  0
  4  3  2  0
M  END

> <chembl_id>
CHEMBL13257

> <chembl_pref_name>
ISOXAZOLE

$$$$

     RDKit          2D

  9  9  0  0  0  0  0  0  0  0999 V2000
    4.2500   -5.6292    0.0000 N   0  0  0  0  0  0  0  0  0  0  0  0
    5.0750   -5.6667    0.0000 C   0  0  0  0  0  0  0  0  0  0  0  0
    4.6000   -6.9250    0.0000 N   0  0  0  0  0  0  0  0  0  0  0  0
    3.9542   -6.4042    0.0000 C   0  0  0  0  0  0  0  0  0  0  0  0
    5.2917   -6.4667    0.0000 C   0  0  0  0  0  0  0  0  0  0  0  0
    5.5917   -5.0292    0.0000 C   0  0  0  0  0  0  0  0  0  0  0  0
    6.4042   -5.1542    0.0000 C   0  0  0  0  0  0  0  0  0  0  0  0
    7.4167   -6.1667    0.0000 N   0  0  0  0  0  0  0  0  0  0  0  0
    6.6167   -5.9542    0.0000 C   0  0  0  0  0  0  0  0  0  0  0  0
  2  1  1  0
  3  4  1  0
  4  1  2  0
  5  2  2  0
  6  2  1  0
  7  6  2  0
  8  9  1  0
  9  7  1  0
  5  3  1  0
M  END

> <chembl_id>
CHEMBL330979

> <chembl_pref_name>
None

$$$$

     RDKit          2D

 11 11  0  0  0  0  0  0  0  0999 V2000
   14.2220  -23.6909    0.0000 C   0  0  0  0  0  0  0  0  0  0  0  0
   13.5104  -24.1033    0.0000 C   0  0  0  0  0  0  0  0  0  0  0  0
   12.7946  -23.6909    0.0000 C   0  0  0  0  0  0  0  0  0  0  0  0
   12.7946  -22.8659    0.0000 C   0  0  0  0  0  0  0  0  0  0  0  0
   13.5104  -22.4535    0.0000 C   0  0  0  0  0  0  0  0  0  0  0  0
   14.2220  -22.8659    0.0000 N   0  0  0  0  0  0  0  0  0  0  0  0
   13.5104  -24.9282    0.0000 N   0  0  0  0  0  0  0  0  0  0  0  0
   12.0788  -24.1033    0.0000 N   0  0  0  0  0  0  0  0  0  0  0  0
   14.9378  -22.4536    0.0000 C   0  0  0  0  0  0  0  0  0  0  0  0
   14.9378  -21.6287    0.0000 C   0  0  0  0  0  0  0  0  0  0  0  0
   14.9315  -20.8017    0.0000 C   0  0  0  0  0  0  0  0  0  0  0  0
  1  2  1  0
  2  3  2  0
  3  4  1  0
  4  5  2  0
  5  6  1  0
  1  6  2  0
  2  7  1  0
  3  8  1  0
  6  9  1  0
  9 10  1  0
 10 11  3  0
M  CHG  1   6   1
M  END

> <chembl_id>
CHEMBL1928399

> <chembl_pref_name>
None

$$$$

     RDKit          2D

  8  8  0  0  0  0  0  0  0  0999 V2000
    2.8547   -1.6443    0.0000 Cl  0  0  0  0  0  0  0  0  0  0  0  0
    0.0000   -1.6443    0.0000 Cl  0  0  0  0  0  0  0  0  0  0  0  0
    1.4274   -1.6443    0.0000 N   0  0  0  0  0  0  0  0  0  0  0  0
    2.1410   -0.4139    0.0000 N   0  0  0  0  0  0  0  0  0  0  0  0
    2.1410   -1.2389    0.0000 C   0  0  0  0  0  0  0  0  0  0  0  0
    0.7137   -1.2389    0.0000 C   0  0  0  0  0  0  0  0  0  0  0  0
    0.7137   -0.4139    0.0000 C   0  0  0  0  0  0  0  0  0  0  0  0
    1.4274    0.0000    0.0000 C   0  0  0  0  0  0  0  0  0  0  0  0
  1  5  1  0
  2  6  1  0
  3  5  1  0
  3  6  2  0
  4  5  2  0
  4  8  1  0
  6  7  1  0
  7  8  2  0
M  END

> <chembl_id>
CHEMBL3188699

> <chembl_pref_name>
None

$$$$

     RDKit          2D

 10 10  0  0  0  0  0  0  0  0999 V2000
    7.5125    0.6917    0.0000 C   0  0  0  0  0  0  0  0  0  0  0  0
    7.5125   -0.1333    0.0000 C   0  0  0  0  0  0  0  0  0  0  0  0
    8.2245   -0.5417    0.0000 C   0  0  0  0  0  0  0  0  0  0  0  0
    8.9365   -0.1333    0.0000 C   0  0  0  0  0  0  0  0  0  0  0  0
    8.9365    0.6917    0.0000 C   0  0  0  0  0  0  0  0  0  0  0  0
    8.2245    1.1083    0.0000 N   0  0  0  0  0  0  0  0  0  0  0  0
    9.6522    1.1021    0.0000 C   0  0  0  0  0  0  0  0  0  0  0  0
    9.6504   -0.5469    0.0000 O   0  0  0  0  0  0  0  0  0  0  0  0
    8.2245   -1.3667    0.0000 O   0  0  0  0  0  0  0  0  0  0  0  0
    8.2245    1.9333    0.0000 C   0  0  0  0  0  0  0  0  0  0  0  0
  3  4  1  0
  4  5  2  0
  5  6  1  0
  5  7  1  0
  1  2  2  0
  4  8  1  0
  1  6  1  0
  3  9  2  0
  2  3  1  0
  6 10  1  0
M  END

> <chembl_id>
CHEMBL70927

> <chembl_pref_name>
DEFERIPRONE

$$$$

     RDKit          2D

 11 11  0  0  0  0  0  0  0  0999 V2000
    5.5350    0.2739    0.0000 N   0  0  0  0  0  0  0  0  0  0  0  0
    5.5350   -0.5511    0.0000 C   0  0  0  0  0  0  0  0  0  0  0  0
    6.2495   -0.9636    0.0000 C   0  0  0  0  0  0  0  0  0  0  0  0
    4.8206   -0.9636    0.0000 C   0  0  0  0  0  0  0  0  0  0  0  0
    6.2495   -1.7886    0.0000 C   0  0  0  0  0  0  0  0  0  0  0  0
    4.8206   -1.7886    0.0000 C   0  0  0  0  0  0  0  0  0  0  0  0
    6.9640   -0.5511    0.0000 C   0  0  0  0  0  0  0  0  0  0  0  0
    5.5350   -2.2011    0.0000 C   0  0  0  0  0  0  0  0  0  0  0  0
    4.8206    0.6864    0.0000 C   0  0  0  0  0  0  0  0  0  0  0  0
    6.2495    0.6864    0.0000 C   0  0  0  0  0  0  0  0  0  0  0  0
    6.9640    0.2739    0.0000 C   0  0  0  0  0  0  0  0  0  0  0  0
  1  2  1  0
  1  9  1  0
  1 10  1  0
  2  3  2  0
  2  4  1  0
  3  5  1  0
  3  7  1  0
  4  6  2  0
  5  8  2  0
  6  8  1  0
  7 11  1  0
M  END

> <chembl_id>
CHEMBL1902738

> <chembl_pref_name>
None

$$$$

     RDKit          2D

  8  8  0  0  0  0  0  0  0  0999 V2000
    0.6743   -2.1894    0.0000 N   0  0  0  0  0  0  0  0  0  0  0  0
    1.0828   -0.9242    0.0000 N   0  0  0  0  0  0  0  0  0  0  0  0
    1.3406   -1.7055    0.0000 C   0  0  0  0  0  0  0  0  0  0  0  0
    0.0000   -1.7055    0.0000 C   0  0  0  0  0  0  0  0  0  0  0  0
    0.2578   -0.9242    0.0000 C   0  0  0  0  0  0  0  0  0  0  0  0
    0.6743   -3.0144    0.0000 C   0  0  0  0  0  0  0  0  0  0  0  0
    1.6659    0.0000    0.0000 C   0  0  0  0  0  0  0  0  0  0  0  0
    1.3882   -3.4308    0.0000 C   0  0  0  0  0  0  0  0  0  0  0  0
  1  3  1  0
  1  4  1  0
  1  6  1  0
  2  3  2  0
  2  5  1  0
  2  7  1  0
  4  5  2  0
  6  8  1  0
M  CHG  1   2   1
M  END

> <chembl_id>
CHEMBL3305904

> <chembl_pref_name>
None

$$$$

     RDKit          2D

 13 15  0  0  0  0  0  0  0  0999 V2000
    7.0534   -4.7809    0.0000 C   0  0  0  0  0  0  0  0  0  0  0  0
    7.0523   -5.6079    0.0000 C   0  0  0  0  0  0  0  0  0  0  0  0
    7.7667   -6.0205    0.0000 C   0  0  0  0  0  0  0  0  0  0  0  0
    7.7649   -4.3684    0.0000 C   0  0  0  0  0  0  0  0  0  0  0  0
    8.4799   -4.7773    0.0000 C   0  0  0  0  0  0  0  0  0  0  0  0
    8.4802   -5.6033    0.0000 C   0  0  0  0  0  0  0  0  0  0  0  0
    9.2660   -5.8584    0.0000 C   0  0  0  0  0  0  0  0  0  0  0  0
    9.2655   -4.5219    0.0000 C   0  0  0  0  0  0  0  0  0  0  0  0
    9.7507   -5.1877    0.0000 C   0  0  0  0  0  0  0  0  0  0  0  0
   10.0847   -4.4345    0.0000 C   0  0  0  0  0  0  0  0  0  0  0  0
    9.2579   -3.6941    0.0000 H   0  0  0  0  0  0  0  0  0  0  0  0
   10.5447   -5.3973    0.0000 H   0  0  0  0  0  0  0  0  0  0  0  0
   10.7511   -3.9488    0.0000 N   0  0  0  0  0  0  0  0  0  0  0  0
  1  2  2  0
  2  3  1  0
  3  6  2  0
  5  4  2  0
  4  1  1  0
  5  6  1  0
  6  7  1  0
  7  9  1  0
  8  5  1  0
  9  8  1  0
 10  9  1  0
  8 10  1  0
  8 11  1  6
  9 12  1  6
 10 13  1  6
M  END


> <chembl_id>
CHEMBL4302026

> <chembl_pref_name>
None

$$$$

     RDKit          2D

  8  8  0  0  0  0  0  0  0  0999 V2000
   14.2693  -20.1105    0.0000 C   0  0  0  0  0  0  0  0  0  0  0  0
   14.2681  -20.9377    0.0000 C   0  0  0  0  0  0  0  0  0  0  0  0
   14.9827  -21.3504    0.0000 N   0  0  0  0  0  0  0  0  0  0  0  0
   15.6989  -20.9372    0.0000 C   0  0  0  0  0  0  0  0  0  0  0  0
   15.6961  -20.1069    0.0000 C   0  0  0  0  0  0  0  0  0  0  0  0
   14.9809  -19.6980    0.0000 C   0  0  0  0  0  0  0  0  0  0  0  0
   16.4088  -19.6919    0.0000 O   0  0  0  0  0  0  0  0  0  0  0  0
   13.5535  -21.3495    0.0000 Cl  0  0  0  0  0  0  0  0  0  0  0  0
  1  2  2  0
  2  3  1  0
  3  4  2  0
  4  5  1  0
  5  6  2  0
  6  1  1  0
  5  7  1  0
  2  8  1  0
M  END

> <chembl_id>
CHEMBL3236918

> <chembl_pref_name>
None

$$$$

     RDKit          2D

 10 10  0  0  0  0  0  0  0  0999 V2000
    4.0792   -2.5125    0.0000 N   0  0  0  0  0  0  0  0  0  0  0  0
    4.8042   -2.0917    0.0000 C   0  0  0  0  0  0  0  0  0  0  0  0
    3.3667   -2.1000    0.0000 C   0  0  0  0  0  0  0  0  0  0  0  0
    4.0792   -3.3375    0.0000 C   0  0  0  0  0  0  0  0  0  0  0  0
    4.8042   -1.2667    0.0000 C   0  0  0  0  0  0  0  0  0  0  0  0
    5.5167   -0.8542    0.0000 O   0  0  0  0  0  0  0  0  0  0  0  0
    5.5167   -0.0250    0.0000 O   0  0  0  0  0  0  0  0  0  0  0  0
    3.3667   -3.7500    0.0000 C   0  0  0  0  0  0  0  0  0  0  0  0
    2.6542   -2.5125    0.0000 C   0  0  0  0  0  0  0  0  0  0  0  0
    2.6542   -3.3375    0.0000 C   0  0  0  0  0  0  0  0  0  0  0  0
  2  1  1  0
  3  1  2  0
  4  1  1  0
  5  2  1  0
  6  5  1  0
  7  6  1  0
  8  4  2  0
  9  3  1  0
 10  9  2  0
 10  8  1  0
M  CHG  1   1   1
M  END

> <chembl_id>
CHEMBL1184143

> <chembl_pref_name>
None

$$$$

     RDKit          2D

 10 11  0  0  0  0  0  0  0  0999 V2000
    6.2500   -0.1917    0.0000 C   0  0  0  0  0  0  0  0  0  0  0  0
    4.9792   -0.6042    0.0000 C   0  0  0  0  0  0  0  0  0  0  0  0
    4.9792    0.2208    0.0000 C   0  0  0  0  0  0  0  0  0  0  0  0
    5.7625   -0.8542    0.0000 C   0  0  0  0  0  0  0  0  0  0  0  0
    5.7625    0.4833    0.0000 C   0  0  0  0  0  0  0  0  0  0  0  0
    7.0750   -0.1917    0.0000 O   0  0  0  0  0  0  0  0  0  0  0  0
    4.2625   -1.0167    0.0000 C   0  0  0  0  0  0  0  0  0  0  0  0
    4.2625    0.6333    0.0000 C   0  0  0  0  0  0  0  0  0  0  0  0
    3.5500    0.2208    0.0000 C   0  0  0  0  0  0  0  0  0  0  0  0
    3.5500   -0.6042    0.0000 C   0  0  0  0  0  0  0  0  0  0  0  0
  2  4  1  0
  3  5  1  0
  4  1  1  0
  5  1  1  0
  6  1  2  0
  7  2  2  0
  8  3  2  0
  9  8  1  0
 10  7  1  0
  2  3  1  0
 10  9  2  0
M  END

> <chembl_id>
CHEMBL195557

> <chembl_pref_name>
None

$$$$

     RDKit          2D

  8  8  0  0  0  0  0  0  0  0999 V2000
    0.1983   -0.9282    0.0000 N   0  0  0  0  0  0  0  0  0  0  0  0
   -0.5162   -0.5157    0.0000 C   0  0  0  0  0  0  0  0  0  0  0  0
   -1.2306   -0.9282    0.0000 O   0  0  0  0  0  0  0  0  0  0  0  0
   -0.5162    0.3093    0.0000 N   0  0  0  0  0  0  0  0  0  0  0  0
    0.1983    0.7218    0.0000 C   0  0  0  0  0  0  0  0  0  0  0  0
    0.1983    1.5468    0.0000 O   0  0  0  0  0  0  0  0  0  0  0  0
    0.9128    0.3093    0.0000 C   0  0  0  0  0  0  0  0  0  0  0  0
    0.9128   -0.5157    0.0000 C   0  0  0  0  0  0  0  0  0  0  0  0
  2  1  1  0
  8  1  1  0
  2  3  2  0
  2  4  1  0
  5  4  1  0
  5  6  2  0
  5  7  1  0
  7  8  2  0
M  END

> <chembl_id>
CHEMBL566

> <chembl_pref_name>
URACIL

$$$$

     RDKit          2D

  9  9  0  0  0  0  0  0  0  0999 V2000
    1.4292   -3.2500    0.0000 C   0  0  0  0  0  0  0  0  0  0  0  0
    2.1417   -2.8292    0.0000 C   0  0  0  0  0  0  0  0  0  0  0  0
    1.4292   -4.0667    0.0000 C   0  0  0  0  0  0  0  0  0  0  0  0
    2.8625   -3.2417    0.0000 C   0  0  0  0  0  0  0  0  0  0  0  0
    2.1417   -4.4875    0.0000 C   0  0  0  0  0  0  0  0  0  0  0  0
    2.8625   -4.0667    0.0000 C   0  0  0  0  0  0  0  0  0  0  0  0
    2.1417   -2.0167    0.0000 O   0  0  0  0  0  0  0  0  0  0  0  0
    0.7167   -2.8375    0.0000 C   0  0  0  0  0  0  0  0  0  0  0  0
    2.1417   -5.3125    0.0000 C   0  0  0  0  0  0  0  0  0  0  0  0
  2  1  1  0
  3  1  2  0
  4  2  2  0
  5  3  1  0
  6  5  2  0
  7  2  1  0
  8  1  1  0
  9  5  1  0
  4  6  1  0
M  END

> <chembl_id>
CHEMBL29878

> <chembl_pref_name>
None

$$$$

     RDKit          2D

 10 10  0  0  0  0  0  0  0  0999 V2000
    3.2042   -4.6000    0.0000 C   0  0  0  0  0  0  0  0  0  0  0  0
    2.4167   -4.8542    0.0000 C   0  0  0  0  0  0  0  0  0  0  0  0
    3.8125   -5.1542    0.0000 C   0  0  0  0  0  0  0  0  0  0  0  0
    2.1625   -5.6417    0.0000 O   0  0  0  0  0  0  0  0  0  0  0  0
    3.3750   -3.7917    0.0000 O   0  0  0  0  0  0  0  0  0  0  0  0
    1.7500   -4.3667    0.0000 C   0  0  0  0  0  0  0  0  0  0  0  0
    4.6000   -4.9000    0.0000 O   0  0  0  0  0  0  0  0  0  0  0  0
    1.3375   -5.6417    0.0000 C   0  0  0  0  0  0  0  0  0  0  0  0
    1.0792   -4.8542    0.0000 C   0  0  0  0  0  0  0  0  0  0  0  0
    3.6417   -5.9625    0.0000 O   0  0  0  0  0  0  0  0  0  0  0  0
  2  1  1  0
  3  1  1  0
  4  2  1  0
  5  1  2  0
  6  2  2  0
  7  3  2  0
  8  4  1  0
  9  6  1  0
 10  3  1  0
  9  8  2  0
M  END

> <chembl_id>
CHEMBL299446

> <chembl_pref_name>
None

$$$$

     RDKit          2D

 11 12  0  0  0  0  0  0  0  0999 V2000
    1.5292   -4.2750    0.0000 N   0  0  0  0  0  0  0  0  0  0  0  0
    0.7667   -4.7167    0.0000 C   0  0  0  0  0  0  0  0  0  0  0  0
    0.0042   -4.2750    0.0000 C   0  0  0  0  0  0  0  0  0  0  0  0
    0.0000   -3.3917    0.0000 C   0  0  0  0  0  0  0  0  0  0  0  0
    1.5292   -3.3917    0.0000 C   0  0  0  0  0  0  0  0  0  0  0  0
    0.7667   -2.9542    0.0000 C   0  0  0  0  0  0  0  0  0  0  0  0
    0.7667   -2.0667    0.0000 N   0  0  0  0  0  0  0  0  0  0  0  0
   -0.7583   -4.7167    0.0000 C   0  0  0  0  0  0  0  0  0  0  0  0
    0.7750   -5.6042    0.0000 C   0  0  0  0  0  0  0  0  0  0  0  0
   -0.7583   -5.6042    0.0000 C   0  0  0  0  0  0  0  0  0  0  0  0
    0.0042   -6.0417    0.0000 C   0  0  0  0  0  0  0  0  0  0  0  0
  2  1  1  0
  3  2  2  0
  4  6  1  0
  5  1  1  0
  6  5  1  0
  7  6  1  0
  8  3  1  0
  9  2  1  0
 10 11  1  0
 11  9  2  0
  4  3  1  0
 10  8  2  0
M  END

> <chembl_id>
CHEMBL159690

> <chembl_pref_name>
None

$$$$

     RDKit          2D

  9  9  0  0  0  0  0  0  0  0999 V2000
    5.6204   -8.9702    0.0000 N   0  0  0  0  0  0  0  0  0  0  0  0
    6.4453   -8.9702    0.0000 O   0  0  0  0  0  0  0  0  0  0  0  0
    6.7021   -8.1861    0.0000 C   0  0  0  0  0  0  0  0  0  0  0  0
    6.0328   -7.6994    0.0000 N   0  0  0  0  0  0  0  0  0  0  0  0
    5.3679   -8.1861    0.0000 C   0  0  0  0  0  0  0  0  0  0  0  0
    7.4904   -7.9303    0.0000 C   0  0  0  0  0  0  0  0  0  0  0  0
    8.1027   -8.4831    0.0000 O   0  0  0  0  0  0  0  0  0  0  0  0
    7.6630   -7.1236    0.0000 O   0  0  0  0  0  0  0  0  0  0  0  0
    4.5831   -7.9315    0.0000 C   0  0  0  0  0  0  0  0  0  0  0  0
  4  5  1  0
  5  1  2  0
  1  2  1  0
  2  3  1  0
  6  7  1  0
  6  8  2  0
  3  6  1  0
  3  4  2  0
  5  9  1  0
M  END

> <chembl_id>
CHEMBL247339

> <chembl_pref_name>
None

$$$$

     RDKit          2D

 10 11  0  0  0  0  0  0  0  0999 V2000
    1.4596   -9.9921    0.0000 C   0  0  0  0  0  0  0  0  0  0  0  0
    1.4585   -9.1725    0.0000 C   0  0  0  0  0  0  0  0  0  0  0  0
    2.1665   -8.7636    0.0000 C   0  0  0  0  0  0  0  0  0  0  0  0
    2.1647  -10.4009    0.0000 C   0  0  0  0  0  0  0  0  0  0  0  0
    2.8734   -9.9957    0.0000 C   0  0  0  0  0  0  0  0  0  0  0  0
    2.8736   -9.1770    0.0000 C   0  0  0  0  0  0  0  0  0  0  0  0
    3.6523   -8.9243    0.0000 C   0  0  0  0  0  0  0  0  0  0  0  0
    4.1333   -9.5868    0.0000 C   0  0  0  0  0  0  0  0  0  0  0  0
    3.6518  -10.2488    0.0000 C   0  0  0  0  0  0  0  0  0  0  0  0
    0.7518  -10.4005    0.0000 O   0  0  0  0  0  0  0  0  0  0  0  0
  1  2  2  0
  2  3  1  0
  3  6  2  0
  5  4  2  0
  4  1  1  0
  5  6  1  0
  6  7  1  0
  7  8  1  0
  8  9  1  0
  9  5  1  0
  1 10  1  0
M  END

> <chembl_id>
CHEMBL3218378

> <chembl_pref_name>
None

$$$$

     RDKit          2D

 10 10  0  0  0  0  0  0  0  0999 V2000
   -1.7772   -2.1090    0.0000 C   0  0  0  0  0  0  0  0  0  0  0  0
   -1.7764   -1.1090    0.0000 C   0  0  0  0  0  0  0  0  0  0  0  0
   -2.6420   -0.6082    0.0000 N   0  0  0  0  0  0  0  0  0  0  0  0
   -0.9100   -0.6096    0.0000 C   0  0  0  0  0  0  0  0  0  0  0  0
   -0.0444   -1.1102    0.0000 N   0  0  0  0  0  0  0  0  0  0  0  0
    0.8220   -0.6110    0.0000 C   0  0  0  0  0  0  0  0  0  0  0  0
    0.8228    0.3890    0.0000 C   0  0  0  0  0  0  0  0  0  0  0  0
   -0.0428    0.8898    0.0000 C   0  0  0  0  0  0  0  0  0  0  0  0
   -0.0420    1.8898    0.0000 N   0  0  0  0  0  0  0  0  0  0  0  0
   -0.9092    0.3904    0.0000 N   0  0  0  0  0  0  0  0  0  0  0  0
  1  2  1  0
  2  3  1  0
  2  4  1  0
  4  5  2  0
  5  6  1  0
  6  7  2  0
  7  8  1  0
  8  9  1  0
  8 10  2  0
 10  4  1  0
M  END

> <chembl_id>
CHEMBL4558650

> <chembl_pref_name>
None

$$$$

     RDKit          2D

  8  8  0  0  0  0  0  0  0  0999 V2000
   -1.2833    0.2458    0.0000 N   0  0  0  0  0  0  0  0  0  0  0  0
   -1.2750    0.9500    0.0000 C   0  0  0  0  0  0  0  0  0  0  0  0
   -0.6625   -0.1167    0.0000 O   0  0  0  0  0  0  0  0  0  0  0  0
   -0.6708    1.2958    0.0000 S   0  0  0  0  0  0  0  0  0  0  0  0
   -1.9083   -0.1042    0.0000 C   0  0  0  0  0  0  0  0  0  0  0  0
   -1.8958    1.3125    0.0000 C   0  0  0  0  0  0  0  0  0  0  0  0
   -2.5125    0.2583    0.0000 C   0  0  0  0  0  0  0  0  0  0  0  0
   -2.5125    0.9625    0.0000 C   0  0  0  0  0  0  0  0  0  0  0  0
  2  1  2  0
  3  1  1  0
  4  2  1  0
  5  1  1  0
  6  2  1  0
  7  5  2  0
  8  7  1  0
  6  8  2  0
M  CHG  2   1   1   3  -1
M  END

> <chembl_id>
CHEMBL1356238

> <chembl_pref_name>
PYRITHIONE

$$$$

     RDKit          2D

  9  9  0  0  0  0  0  0  0  0999 V2000
    8.1169  -11.3084    0.0000 N   0  0  0  0  0  0  0  0  0  0  0  0
    8.8313  -10.8959    0.0000 C   0  0  0  0  0  0  0  0  0  0  0  0
    9.5458  -11.3084    0.0000 C   0  0  0  0  0  0  0  0  0  0  0  0
   10.2603  -10.8959    0.0000 C   0  0  0  0  0  0  0  0  0  0  0  0
   10.9748  -11.3084    0.0000 C   0  0  0  0  0  0  0  0  0  0  0  0
   10.9748  -12.1334    0.0000 C   0  0  0  0  0  0  0  0  0  0  0  0
   10.2603  -12.5459    0.0000 C   0  0  0  0  0  0  0  0  0  0  0  0
    9.5458  -12.1334    0.0000 C   0  0  0  0  0  0  0  0  0  0  0  0
   10.2603  -10.0709    0.0000 O   0  0  0  0  0  0  0  0  0  0  0  0
  2  3  1  0
  3  4  1  0
  4  5  2  0
  5  6  1  0
  6  7  2  0
  7  8  1  0
  3  8  2  0
  1  2  1  0
  4  9  1  0
M  END

> <chembl_id>
CHEMBL155572

> <chembl_pref_name>
None

$$$$

     RDKit          2D

 10 10  0  0  0  0  0  0  0  0999 V2000
    3.9167   -4.5042    0.0000 N   0  0  0  0  0  0  0  0  0  0  0  0
    3.5167   -4.0542    0.0000 C   0  0  0  0  0  0  0  0  0  0  0  0
    4.3042   -5.3917    0.0000 N   0  0  0  0  0  0  0  0  0  0  0  0
    4.5125   -4.4417    0.0000 N   0  0  0  0  0  0  0  0  0  0  0  0
    3.7875   -5.0917    0.0000 C   0  0  0  0  0  0  0  0  0  0  0  0
    4.7542   -4.9917    0.0000 C   0  0  0  0  0  0  0  0  0  0  0  0
    2.9167   -4.0542    0.0000 C   0  0  0  0  0  0  0  0  0  0  0  0
    3.8167   -3.5375    0.0000 C   0  0  0  0  0  0  0  0  0  0  0  0
    2.6167   -4.5750    0.0000 O   0  0  0  0  0  0  0  0  0  0  0  0
    2.6167   -3.5375    0.0000 C   0  0  0  0  0  0  0  0  0  0  0  0
  2  1  1  0
  3  5  2  0
  4  1  1  0
  5  1  1  0
  6  4  2  0
  7  2  1  0
  8  2  2  0
  9  7  2  0
 10  7  1  0
  6  3  1  0
M  END

> <chembl_id>
CHEMBL288298

> <chembl_pref_name>
None

$$$$

     RDKit          2D

 11 11  0  0  0  0  0  0  0  0999 V2000
    6.7792   -8.5667    0.0000 C   0  0  0  0  0  0  0  0  0  0  0  0
    6.7875   -7.7417    0.0000 N   0  0  0  0  0  0  0  0  0  0  0  0
    6.0667   -8.9792    0.0000 N   0  0  0  0  0  0  0  0  0  0  0  0
    7.5000   -8.9792    0.0000 N   0  0  0  0  0  0  0  0  0  0  0  0
    5.3542   -8.5667    0.0000 C   0  0  0  0  0  0  0  0  0  0  0  0
    3.9292   -7.7417    0.0000 C   0  0  0  0  0  0  0  0  0  0  0  0
    4.6417   -8.9792    0.0000 C   0  0  0  0  0  0  0  0  0  0  0  0
    5.3542   -7.7417    0.0000 C   0  0  0  0  0  0  0  0  0  0  0  0
    3.9292   -8.5667    0.0000 C   0  0  0  0  0  0  0  0  0  0  0  0
    4.6417   -7.3292    0.0000 C   0  0  0  0  0  0  0  0  0  0  0  0
    3.2167   -7.3292    0.0000 C   0  0  0  0  0  0  0  0  0  0  0  0
  2  1  2  0
  3  1  1  0
  4  1  1  0
  5  3  1  0
  6 10  2  0
  7  5  1  0
  8  5  2  0
  9  7  2  0
 10  8  1  0
 11  6  1  0
  6  9  1  0
M  END

> <chembl_id>
CHEMBL43415

> <chembl_pref_name>
None

$$$$

     RDKit          2D

  8  8  0  0  0  0  0  0  0  0999 V2000
    8.5182  -12.1167    0.0000 N   0  0  0  0  0  0  0  0  0  0  0  0
    9.2292  -11.7037    0.0000 C   0  0  0  0  0  0  0  0  0  0  0  0
    9.9965  -12.0402    0.0000 N   0  0  0  0  0  0  0  0  0  0  0  0
    8.4796  -12.9466    0.0000 C   0  0  0  0  0  0  0  0  0  0  0  0
    7.8989  -11.5601    0.0000 S   0  0  0  0  0  0  0  0  0  0  0  0
    8.2334  -10.8178    0.0000 N   0  0  0  0  0  0  0  0  0  0  0  0
    9.0531  -10.8977    0.0000 C   0  0  0  0  0  0  0  0  0  0  0  0
   10.6624  -11.5506    0.0000 C   0  0  0  0  0  0  0  0  0  0  0  0
  1  2  1  0
  2  3  2  0
  1  4  1  0
  1  5  1  0
  5  6  1  0
  6  7  2  0
  2  7  1  0
  3  8  1  0
M  END

> <chembl_id>
CHEMBL3303379

> <chembl_pref_name>
None

$$$$

     RDKit          2D

 11 12  0  0  0  0  0  0  0  0999 V2000
   -1.9333    0.9875    0.0000 C   0  0  0  0  0  0  0  0  0  0  0  0
   -3.0458    0.2500    0.0000 N   0  0  0  0  0  0  0  0  0  0  0  0
   -1.3500    1.5833    0.0000 C   0  0  0  0  0  0  0  0  0  0  0  0
   -1.7208    0.2083    0.0000 N   0  0  0  0  0  0  0  0  0  0  0  0
   -2.4083   -0.2417    0.0000 C   0  0  0  0  0  0  0  0  0  0  0  0
   -2.7583    1.0250    0.0000 C   0  0  0  0  0  0  0  0  0  0  0  0
   -0.1833    2.7583    0.0000 N   0  0  0  0  0  0  0  0  0  0  0  0
   -1.5708    2.3750    0.0000 C   0  0  0  0  0  0  0  0  0  0  0  0
   -0.9833    2.9708    0.0000 C   0  0  0  0  0  0  0  0  0  0  0  0
   -0.5458    1.3708    0.0000 C   0  0  0  0  0  0  0  0  0  0  0  0
    0.0375    1.9583    0.0000 C   0  0  0  0  0  0  0  0  0  0  0  0
  2  6  1  0
  3  1  1  0
  4  1  1  0
  5  4  2  0
  6  1  2  0
  7 11  1  0
  8  3  2  0
  9  8  1  0
 10  3  1  0
 11 10  1  0
  2  5  1  0
  9  7  1  0
M  END

> <chembl_id>
CHEMBL150243

> <chembl_pref_name>
None

$$$$

     RDKit          2D

 10 10  0  0  0  0  0  0  0  0999 V2000
    5.6417   -4.7917    0.0000 C   0  0  0  0  0  0  0  0  0  0  0  0
    4.9292   -4.3792    0.0000 N   0  0  0  0  0  0  0  0  0  0  0  0
    5.6417   -5.6167    0.0000 C   0  0  0  0  0  0  0  0  0  0  0  0
    4.9292   -6.0292    0.0000 N   0  0  0  0  0  0  0  0  0  0  0  0
    6.3542   -4.3792    0.0000 O   0  0  0  0  0  0  0  0  0  0  0  0
    4.2167   -4.7917    0.0000 C   0  0  0  0  0  0  0  0  0  0  0  0
    4.2167   -5.6167    0.0000 C   0  0  0  0  0  0  0  0  0  0  0  0
    6.3542   -6.0292    0.0000 C   0  0  0  0  0  0  0  0  0  0  0  0
    7.0667   -4.7917    0.0000 C   0  0  0  0  0  0  0  0  0  0  0  0
    7.7875   -4.3792    0.0000 C   0  0  0  0  0  0  0  0  0  0  0  0
  2  1  2  0
  3  1  1  0
  4  3  2  0
  5  1  1  0
  6  2  1  0
  7  4  1  0
  8  3  1  0
  9  5  1  0
 10  9  1  0
  6  7  2  0
M  END

> <chembl_id>
CHEMBL330720

> <chembl_pref_name>
None

$$$$

     RDKit          2D

  9  9  0  0  0  0  0  0  0  0999 V2000
    1.4289   -0.8250    0.0000 S   0  0  0  0  0  0  0  0  0  0  0  0
    0.0000    1.6500    0.0000 O   0  0  0  0  0  0  0  0  0  0  0  0
    0.7145    0.4125    0.0000 N   0  0  0  0  0  0  0  0  0  0  0  0
    0.0000   -0.8250    0.0000 N   0  0  0  0  0  0  0  0  0  0  0  0
    0.7145   -0.4125    0.0000 C   0  0  0  0  0  0  0  0  0  0  0  0
    0.0000    0.8250    0.0000 C   0  0  0  0  0  0  0  0  0  0  0  0
   -0.7145   -0.4125    0.0000 C   0  0  0  0  0  0  0  0  0  0  0  0
   -0.7145    0.4125    0.0000 C   0  0  0  0  0  0  0  0  0  0  0  0
   -1.4289   -0.8250    0.0000 C   0  0  0  0  0  0  0  0  0  0  0  0
  1  5  2  0
  2  6  2  0
  3  5  1  0
  3  6  1  0
  4  5  1  0
  4  7  1  0
  6  8  1  0
  7  8  2  0
  7  9  1  0
M  END

> <chembl_id>
CHEMBL1330588

> <chembl_pref_name>
METHYLTHIOURACIL

$$$$

     RDKit          2D

  7  7  0  0  0  0  0  0  0  0999 V2000
    0.0428    0.0356    0.0000 C   0  0  0  0  0  0  0  0  0  0  0  0
    0.0428   -0.7894    0.0000 C   0  0  0  0  0  0  0  0  0  0  0  0
    0.7102   -1.2743    0.0000 O   0  0  0  0  0  0  0  0  0  0  0  0
    0.4553   -2.0590    0.0000 C   0  0  0  0  0  0  0  0  0  0  0  0
   -0.3697   -2.0590    0.0000 C   0  0  0  0  0  0  0  0  0  0  0  0
   -0.6247   -1.2743    0.0000 C   0  0  0  0  0  0  0  0  0  0  0  0
   -0.6717    0.4481    0.0000 O   0  0  0  0  0  0  0  0  0  0  0  0
  1  2  1  0
  1  7  2  0
  2  3  1  0
  2  6  2  0
  4  3  1  0
  4  5  2  0
  5  6  1  0
M  END

> <chembl_id>
CHEMBL189362

> <chembl_pref_name>
FURFURAL

$$$$

     RDKit          2D

 10 10  0  0  0  0  0  0  0  0999 V2000
    1.9542   -3.4167    0.0000 C   0  0  0  0  0  0  0  0  0  0  0  0
    1.6542   -2.9000    0.0000 C   0  0  0  0  0  0  0  0  0  0  0  0
    2.5542   -3.4167    0.0000 C   0  0  0  0  0  0  0  0  0  0  0  0
    1.8917   -2.3417    0.0000 O   0  0  0  0  0  0  0  0  0  0  0  0
    1.0542   -2.8417    0.0000 C   0  0  0  0  0  0  0  0  0  0  0  0
    1.6542   -3.9375    0.0000 O   0  0  0  0  0  0  0  0  0  0  0  0
    1.4375   -1.9542    0.0000 C   0  0  0  0  0  0  0  0  0  0  0  0
    0.9167   -2.2625    0.0000 C   0  0  0  0  0  0  0  0  0  0  0  0
    2.8542   -2.9000    0.0000 C   0  0  0  0  0  0  0  0  0  0  0  0
    2.8542   -3.9375    0.0000 C   0  0  0  0  0  0  0  0  0  0  0  0
  2  1  1  0
  3  1  1  0
  4  2  1  0
  5  2  2  0
  6  1  2  0
  7  4  1  0
  8  5  1  0
  9  3  2  0
 10  3  1  0
  8  7  2  0
M  END

> <chembl_id>
CHEMBL37530

> <chembl_pref_name>
None

$$$$

     RDKit          2D

  9  9  0  0  0  0  0  0  0  0999 V2000
    1.4131   -0.8158    0.0000 N   0  0  0  0  0  0  0  0  0  0  0  0
   -0.0159   -1.6408    0.0000 N   0  0  0  0  0  0  0  0  0  0  0  0
    0.6986   -0.4033    0.0000 C   0  0  0  0  0  0  0  0  0  0  0  0
   -0.0159   -0.8158    0.0000 C   0  0  0  0  0  0  0  0  0  0  0  0
    0.6986    0.4217    0.0000 C   0  0  0  0  0  0  0  0  0  0  0  0
   -0.0159    0.8342    0.0000 C   0  0  0  0  0  0  0  0  0  0  0  0
   -0.7304   -0.4033    0.0000 C   0  0  0  0  0  0  0  0  0  0  0  0
   -0.7304    0.4217    0.0000 C   0  0  0  0  0  0  0  0  0  0  0  0
   -0.0159    1.6592    0.0000 C   0  0  0  0  0  0  0  0  0  0  0  0
  1  3  1  0
  2  4  1  0
  3  4  2  0
  3  5  1  0
  4  7  1  0
  5  6  2  0
  6  8  1  0
  6  9  1  0
  7  8  2  0
M  END

> <chembl_id>
CHEMBL1319452

> <chembl_pref_name>
None

$$$$

     RDKit          2D

 10 10  0  0  0  0  0  0  0  0999 V2000
   -3.8048   -0.4272    0.0000 C   0  0  0  0  0  0  0  0  0  0  0  0
   -2.9406    0.0758    0.0000 N   0  0  0  0  0  0  0  0  0  0  0  0
   -2.0728   -0.4210    0.0000 C   0  0  0  0  0  0  0  0  0  0  0  0
   -1.2086    0.0820    0.0000 C   0  0  0  0  0  0  0  0  0  0  0  0
   -1.2122    1.0820    0.0000 C   0  0  0  0  0  0  0  0  0  0  0  0
   -0.3480    1.5852    0.0000 N   0  0  0  0  0  0  0  0  0  0  0  0
    0.5198    1.0882    0.0000 C   0  0  0  0  0  0  0  0  0  0  0  0
    1.3840    1.5914    0.0000 C   0  0  0  0  0  0  0  0  0  0  0  0
    0.5236    0.0882    0.0000 C   0  0  0  0  0  0  0  0  0  0  0  0
   -0.3408   -0.4148    0.0000 N   0  0  0  0  0  0  0  0  0  0  0  0
  1  2  1  0
  2  3  1  0
  3  4  1  0
  4  5  2  0
  5  6  1  0
  6  7  2  0
  7  8  1  0
  7  9  1  0
  9 10  2  0
 10  4  1  0
M  END

> <chembl_id>
CHEMBL4584682

> <chembl_pref_name>
None

$$$$
 
     RDKit          2D

  7  7  0  0  0  0  0  0  0  0999 V2000
   35.9563  -10.8197    0.0000 C   0  0  0  0  0  0  0  0  0  0  0  0
   36.7714  -10.8784    0.0000 S   0  0  0  0  0  0  0  0  0  0  0  0
   37.0809  -10.1219    0.0000 C   0  0  0  0  0  0  0  0  0  0  0  0
   36.4543   -9.5934    0.0000 N   0  0  0  0  0  0  0  0  0  0  0  0
   35.7626  -10.0270    0.0000 C   0  0  0  0  0  0  0  0  0  0  0  0
   35.4284  -11.4440    0.0000 C   0  0  0  0  0  0  0  0  0  0  0  0
   34.9003  -12.0686    0.0000 C   0  0  0  0  0  0  0  0  0  0  0  0
  1  2  1  0
  2  3  1  0
  3  4  2  0
  4  5  1  0
  5  1  2  0
  1  6  1  0
  6  7  3  0
M  END

> <chembl_id>
CHEMBL4558161

> <chembl_pref_name>
None

$$$$

     RDKit          2D

 11 12  0  0  0  0  0  0  0  0999 V2000
    2.2167   -2.4042    0.0000 N   0  0  0  0  0  0  0  0  0  0  0  0
    2.9292   -1.9917    0.0000 C   0  0  0  0  0  0  0  0  0  0  0  0
    1.5042   -1.9917    0.0000 C   0  0  0  0  0  0  0  0  0  0  0  0
    3.6417   -2.4042    0.0000 N   0  0  0  0  0  0  0  0  0  0  0  0
    1.5042   -1.1667    0.0000 C   0  0  0  0  0  0  0  0  0  0  0  0
    2.2167   -0.7542    0.0000 C   0  0  0  0  0  0  0  0  0  0  0  0
    2.9292   -1.1667    0.0000 C   0  0  0  0  0  0  0  0  0  0  0  0
    0.7917   -2.4042    0.0000 C   0  0  0  0  0  0  0  0  0  0  0  0
    0.7917   -0.7542    0.0000 C   0  0  0  0  0  0  0  0  0  0  0  0
    0.0792   -1.9917    0.0000 C   0  0  0  0  0  0  0  0  0  0  0  0
    0.0792   -1.1667    0.0000 C   0  0  0  0  0  0  0  0  0  0  0  0
  2  1  2  0
  3  1  1  0
  4  2  1  0
  5  3  2  0
  6  5  1  0
  7  2  1  0
  8  3  1  0
  9  5  1  0
 10  8  2  0
 11 10  1  0
  7  6  1  0
  9 11  2  0
M  END

> <chembl_id>
CHEMBL6656

> <chembl_pref_name>
None

$$$$

     RDKit          2D

  9  9  0  0  0  0  0  0  0  0999 V2000
    5.4167   -3.3292    0.0000 N   0  0  0  0  0  0  0  0  0  0  0  0
    4.7042   -2.9167    0.0000 C   0  0  0  0  0  0  0  0  0  0  0  0
    4.7042   -2.0875    0.0000 C   0  0  0  0  0  0  0  0  0  0  0  0
    5.4167   -1.6750    0.0000 C   0  0  0  0  0  0  0  0  0  0  0  0
    6.1292   -2.9167    0.0000 C   0  0  0  0  0  0  0  0  0  0  0  0
    3.9875   -3.3292    0.0000 N   0  0  0  0  0  0  0  0  0  0  0  0
    6.1292   -2.0875    0.0000 C   0  0  0  0  0  0  0  0  0  0  0  0
    3.9917   -1.6792    0.0000 C   0  0  0  0  0  0  0  0  0  0  0  0
    6.8417   -1.6667    0.0000 C   0  0  0  0  0  0  0  0  0  0  0  0
  2  1  1  0
  3  2  2  0
  4  7  2  0
  5  1  2  0
  6  2  1  0
  7  5  1  0
  8  3  1  0
  9  7  1  0
  3  4  1  0
M  END

> <chembl_id>
CHEMBL61430

> <chembl_pref_name>
None

$$$$
 
     RDKit          2D

  8  8  0  0  0  0  0  0  0  0999 V2000
    9.9493   -7.1642    0.0000 C   0  0  0  0  0  0  0  0  0  0  0  0
   10.5526   -9.2119    0.0000 C   0  0  0  0  0  0  0  0  0  0  0  0
   10.5383   -7.7417    0.0000 C   0  0  0  0  0  0  0  0  0  0  0  0
   10.1100   -9.9081    0.0000 N   0  0  0  0  0  0  0  0  0  0  0  0
    9.3548   -8.3593    0.0000 C   0  0  0  0  0  0  0  0  0  0  0  0
    9.2156   -7.5505    0.0000 S   0  0  0  0  0  0  0  0  0  0  0  0
   11.3768   -9.2470    0.0000 S   0  0  0  0  0  0  0  0  0  0  0  0
   10.1709   -8.4805    0.0000 C   0  0  0  0  0  0  0  0  0  0  0  0
  8  3  1  0
  5  8  2  0
  6  5  1  0
  2  7  2  0
  8  2  1  0
  1  6  1  0
  2  4  1  0
  3  1  2  0
M  END

> <chembl_id>
CHEMBL4526909

> <chembl_pref_name>
None

$$$$

     RDKit          2D

 10 10  0  0  0  0  0  0  0  0999 V2000
    1.2990   -0.7500    0.0000 C   0  0  0  0  0  0  0  0  0  0  0  0
    1.2990    0.7500    0.0000 C   0  0  0  0  0  0  0  0  0  0  0  0
    0.0000    1.5000    0.0000 N   0  0  0  0  0  0  0  0  0  0  0  0
   -1.2990    0.7500    0.0000 C   0  0  0  0  0  0  0  0  0  0  0  0
   -1.2990   -0.7500    0.0000 C   0  0  0  0  0  0  0  0  0  0  0  0
    0.0000   -1.5000    0.0000 C   0  0  0  0  0  0  0  0  0  0  0  0
    0.0000   -2.7000    0.0000 O   0  0  0  0  0  0  0  0  0  0  0  0
   -2.3383   -1.3500    0.0000 O   0  0  0  0  0  0  0  0  0  0  0  0
    2.3383    1.3500    0.0000 C   0  0  0  0  0  0  0  0  0  0  0  0
    0.0000    2.7000    0.0000 C   0  0  0  0  0  0  0  0  0  0  0  0
  1  2  2  0
  1  6  1  0
  2  3  1  0
  3  4  1  0
  4  5  2  0
  5  6  1  0
  6  7  2  0
  5  8  1  0
  2  9  1  0
  3 10  1  0
M  END

> <chembl_id>
CHEMBL3787624

> <chembl_pref_name>
None

$$$$

     RDKit          2D

 10 10  0  0  0  0  0  0  0  0999 V2000
    1.2990   -0.7500    0.0000 C   0  0  0  0  0  0  0  0  0  0  0  0
    1.2990    0.7500    0.0000 C   0  0  0  0  0  0  0  0  0  0  0  0
    0.0000    1.5000    0.0000 N   0  0  0  0  0  0  0  0  0  0  0  0
   -1.2990    0.7500    0.0000 C   0  0  0  0  0  0  0  0  0  0  0  0
   -1.2990   -0.7500    0.0000 C   0  0  0  0  0  0  0  0  0  0  0  0
    0.0000   -1.5000    0.0000 C   0  0  0  0  0  0  0  0  0  0  0  0
    0.0000   -2.7000    0.0000 O   0  0  0  0  0  0  0  0  0  0  0  0
   -2.3383   -1.3500    0.0000 O   0  0  0  0  0  0  0  0  0  0  0  0
   -2.3383    1.3500    0.0000 C   0  0  0  0  0  0  0  0  0  0  0  0
    2.3383   -1.3500    0.0000 C   0  0  0  0  0  0  0  0  0  0  0  0
  1  2  2  0
  1  6  1  0
  2  3  1  0
  3  4  1  0
  4  5  2  0
  5  6  1  0
  6  7  2  0
  5  8  1  0
  4  9  1  0
  1 10  1  0
M  END

> <chembl_id>
CHEMBL3785612

> <chembl_pref_name>
None

$$$$

     RDKit          2D

  8  8  0  0  0  0  0  0  0  0999 V2000
   -2.1546   -1.4238    0.0000 C   0  0  0  0  0  0  0  0  0  0  0  0
   -1.2434   -1.0122    0.0000 C   0  0  0  0  0  0  0  0  0  0  0  0
   -0.3748   -1.5076    0.0000 N   0  0  0  0  0  0  0  0  0  0  0  0
    0.3648   -0.8346    0.0000 N   0  0  0  0  0  0  0  0  0  0  0  0
   -0.0466    0.0768    0.0000 C   0  0  0  0  0  0  0  0  0  0  0  0
    0.4488    0.9454    0.0000 C   0  0  0  0  0  0  0  0  0  0  0  0
   -1.0406   -0.0330    0.0000 C   0  0  0  0  0  0  0  0  0  0  0  0
   -1.7136    0.7066    0.0000 C   0  0  0  0  0  0  0  0  0  0  0  0
  1  2  1  0
  2  3  2  0
  3  4  1  0
  4  5  1  0
  5  6  1  0
  5  7  2  0
  7  8  1  0
  7  2  1  0
M  END

> <chembl_id>
CHEMBL4514142

> <chembl_pref_name>
None

$$$$

     RDKit          2D

 11 11  0  0  0  0  0  0  0  0999 V2000
    6.0060   -2.7350    0.0000 C   0  0  0  0  0  0  0  0  0  0  0  0
    6.7195   -2.3195    0.0000 N   0  0  0  0  0  0  0  0  0  0  0  0
    7.4316   -1.9017    0.0000 N   0  0  0  0  0  0  0  0  0  0  0  0
    8.1448   -1.4847    0.0000 N   0  0  0  0  0  0  0  0  0  0  0  0
    5.2930   -2.3232    0.0000 C   0  0  0  0  0  0  0  0  0  0  0  0
    4.5799   -2.7380    0.0000 C   0  0  0  0  0  0  0  0  0  0  0  0
    4.5826   -3.5646    0.0000 C   0  0  0  0  0  0  0  0  0  0  0  0
    5.3043   -3.9746    0.0000 C   0  0  0  0  0  0  0  0  0  0  0  0
    6.0145   -3.5574    0.0000 C   0  0  0  0  0  0  0  0  0  0  0  0
    3.8628   -3.9852    0.0000 O   0  0  0  0  0  0  0  0  0  0  0  0
    3.1408   -3.5683    0.0000 C   0  0  0  0  0  0  0  0  0  0  0  0
  1  2  1  0
  2  3  2  0
  3  4  2  0
  1  5  2  0
  5  6  1  0
  6  7  2  0
  7  8  1  0
  8  9  2  0
  9  1  1  0
  7 10  1  0
 10 11  1  0
M  CHG  2   3   1   4  -1
M  END

> <chembl_id>
CHEMBL3236175

> <chembl_pref_name>
None

$$$$

     RDKit          2D

 11 11  0  0  0  0  0  0  0  0999 V2000
    7.5922   -0.9882    0.0000 N   0  0  0  0  0  0  0  0  0  0  0  0
    6.1671   -0.9918    0.0000 C   0  0  0  0  0  0  0  0  0  0  0  0
    6.8793   -1.4034    0.0000 C   0  0  0  0  0  0  0  0  0  0  0  0
    6.8878   -2.2249    0.0000 C   0  0  0  0  0  0  0  0  0  0  0  0
    9.0161   -0.1541    0.0000 N   0  0  0  0  0  0  0  0  0  0  0  0
    8.3037   -0.5708    0.0000 N   0  0  0  0  0  0  0  0  0  0  0  0
    5.4547   -1.4063    0.0000 C   0  0  0  0  0  0  0  0  0  0  0  0
    6.1783   -2.6417    0.0000 C   0  0  0  0  0  0  0  0  0  0  0  0
    5.4573   -2.2322    0.0000 C   0  0  0  0  0  0  0  0  0  0  0  0
    4.7334   -0.9899    0.0000 C   0  0  0  0  0  0  0  0  0  0  0  0
    4.7383   -2.6522    0.0000 C   0  0  0  0  0  0  0  0  0  0  0  0
  9  8  1  0
  7  9  2  0
  8  4  2  0
  6  5  2  0
  4  3  1  0
  2  7  1  0
  1  6  2  0
  3  1  1  0
  3  2  2  0
  7 10  1  0
  9 11  1  0
M  CHG  2   5  -1   6   1
M  END

> <chembl_id>
CHEMBL3236184

> <chembl_pref_name>
None

$$$$

     RDKit          2D

 10 10  0  0  0  0  0  0  0  0999 V2000
    0.2926   -1.7844    0.0000 C   0  0  0  0  0  0  0  0  0  0  0  0
   -0.5744   -1.2862    0.0000 N   0  0  0  0  0  0  0  0  0  0  0  0
   -1.4394   -1.7880    0.0000 C   0  0  0  0  0  0  0  0  0  0  0  0
   -0.5764   -0.2862    0.0000 C   0  0  0  0  0  0  0  0  0  0  0  0
    0.2886    0.2154    0.0000 C   0  0  0  0  0  0  0  0  0  0  0  0
    0.2866    1.2154    0.0000 C   0  0  0  0  0  0  0  0  0  0  0  0
   -0.5804    1.7138    0.0000 N   0  0  0  0  0  0  0  0  0  0  0  0
   -1.4454    1.2120    0.0000 C   0  0  0  0  0  0  0  0  0  0  0  0
   -1.4434    0.2120    0.0000 C   0  0  0  0  0  0  0  0  0  0  0  0
   -2.3084   -0.2898    0.0000 N   0  0  0  0  0  0  0  0  0  0  0  0
  1  2  1  0
  2  3  1  0
  2  4  1  0
  4  5  2  0
  5  6  1  0
  6  7  2  0
  7  8  1  0
  8  9  2  0
  9 10  1  0
  9  4  1  0
M  END

> <chembl_id>
CHEMBL4519137

> <chembl_pref_name>
None

$$$$

     RDKit          2D

  8  8  0  0  0  0  0  0  0  0999 V2000
    1.3740   -0.0431    0.0000 C   0  0  0  0  0  0  0  0  0  0  0  0
    0.5894   -0.2980    0.0000 N   0  0  0  0  0  0  0  0  0  0  0  0
    0.3344   -1.0826    0.0000 C   0  0  0  0  0  0  0  0  0  0  0  0
   -0.4906   -1.0826    0.0000 N   0  0  0  0  0  0  0  0  0  0  0  0
   -0.7455   -0.2980    0.0000 C   0  0  0  0  0  0  0  0  0  0  0  0
   -0.0781    0.1869    0.0000 C   0  0  0  0  0  0  0  0  0  0  0  0
   -0.0781    1.0119    0.0000 C   0  0  0  0  0  0  0  0  0  0  0  0
   -0.7925    1.4244    0.0000 O   0  0  0  0  0  0  0  0  0  0  0  0
  1  2  1  0
  3  2  1  0
  6  2  1  0
  3  4  2  0
  5  4  1  0
  5  6  2  0
  6  7  1  0
  7  8  2  0
M  END

> <chembl_id>
CHEMBL190795

> <chembl_pref_name>
None

$$$$

     RDKit          2D

 11 11  0  0  0  0  0  0  0  0999 V2000
   -2.7500    1.8542    0.0000 C   0  0  0  0  0  0  0  0  0  0  0  0
   -2.0355    2.2667    0.0000 C   0  0  0  0  0  0  0  0  0  0  0  0
   -1.3211    1.8542    0.0000 C   0  0  0  0  0  0  0  0  0  0  0  0
   -0.6066    2.2667    0.0000 N   0  0  0  0  0  0  0  0  0  0  0  0
   -0.6020    3.0936    0.0000 O   0  0  0  0  0  0  0  0  0  0  0  0
    0.1125    1.8561    0.0000 O   0  0  0  0  0  0  0  0  0  0  0  0
   -3.4640    2.2696    0.0000 C   0  0  0  0  0  0  0  0  0  0  0  0
   -4.1780    1.8578    0.0000 C   0  0  0  0  0  0  0  0  0  0  0  0
   -4.1784    1.0319    0.0000 C   0  0  0  0  0  0  0  0  0  0  0  0
   -3.4589    0.6196    0.0000 C   0  0  0  0  0  0  0  0  0  0  0  0
   -2.7479    1.0338    0.0000 C   0  0  0  0  0  0  0  0  0  0  0  0
  4  6  1  0
  1  2  1  0
  1  7  2  0
  3  4  1  0
  7  8  1  0
  8  9  2  0
  2  3  2  0
  9 10  1  0
  4  5  2  0
 10 11  2  0
 11  1  1  0
M  CHG  2   4   1   6  -1
M  END

> <chembl_id>
CHEMBL230156

> <chembl_pref_name>
(2-NITROVINYL)BENZENE

$$$$

     RDKit          2D

 10 10  0  0  0  0  0  0  0  0999 V2000
   17.5881   -3.9622    0.0000 O   0  0  0  0  0  0  0  0  0  0  0  0
   18.2592   -3.4973    0.0000 N   0  0  0  0  0  0  0  0  0  0  0  0
   18.0278   -2.7153    0.0000 C   0  0  0  0  0  0  0  0  0  0  0  0
   17.2093   -2.6935    0.0000 C   0  0  0  0  0  0  0  0  0  0  0  0
   16.9392   -3.4655    0.0000 C   0  0  0  0  0  0  0  0  0  0  0  0
   18.5244   -2.0664    0.0000 O   0  0  0  0  0  0  0  0  0  0  0  0
   16.1515   -3.6979    0.0000 C   0  0  0  0  0  0  0  0  0  0  0  0
   18.9828   -3.8771    0.0000 C   0  0  0  0  0  0  0  0  0  0  0  0
   19.0156   -4.6937    0.0000 C   0  0  0  0  0  0  0  0  0  0  0  0
   19.7392   -5.0735    0.0000 C   0  0  0  0  0  0  0  0  0  0  0  0
  1  2  1  0
  2  3  1  0
  3  4  1  0
  4  5  2  0
  1  5  1  0
  3  6  2  0
  5  7  1  0
  2  8  1  0
  8  9  1  0
  9 10  1  0
M  END

> <chembl_id>
CHEMBL2270261

> <chembl_pref_name>
None

$$$$

     RDKit          2D

 10 10  0  0  0  0  0  0  0  0999 V2000
    1.0167   -0.6417    0.0000 N   0  0  0  0  0  0  0  0  0  0  0  0
    1.7375    0.5958    0.0000 N   0  0  0  0  0  0  0  0  0  0  0  0
    0.3042    0.5958    0.0000 N   0  0  0  0  0  0  0  0  0  0  0  0
    1.7375   -0.2292    0.0000 C   0  0  0  0  0  0  0  0  0  0  0  0
    0.3042   -0.2292    0.0000 C   0  0  0  0  0  0  0  0  0  0  0  0
    1.0167    1.0083    0.0000 C   0  0  0  0  0  0  0  0  0  0  0  0
    2.4542   -0.6417    0.0000 N   0  0  0  0  0  0  0  0  0  0  0  0
   -0.4083   -0.6417    0.0000 N   0  0  0  0  0  0  0  0  0  0  0  0
    1.0167    1.8333    0.0000 N   0  0  0  0  0  0  0  0  0  0  0  0
    3.1667   -0.2292    0.0000 N   0  0  0  0  0  0  0  0  0  0  0  0
  2  4  1  0
  3  5  2  0
  4  1  2  0
  5  1  1  0
  6  3  1  0
  7  4  1  0
  8  5  1  0
  9  6  1  0
 10  7  1  0
  6  2  2  0
M  END

> <chembl_id>
CHEMBL189263

> <chembl_pref_name>
None

$$$$

     RDKit          2D

  7  7  0  0  0  0  0  0  0  0999 V2000
    1.6417   -2.6542    0.0000 C   0  0  0  0  0  0  0  0  0  0  0  0
    1.1542   -2.3042    0.0000 N   0  0  0  0  0  0  0  0  0  0  0  0
    1.4542   -3.2292    0.0000 N   0  0  0  0  0  0  0  0  0  0  0  0
    0.8500   -3.2292    0.0000 C   0  0  0  0  0  0  0  0  0  0  0  0
    0.6667   -2.6542    0.0000 C   0  0  0  0  0  0  0  0  0  0  0  0
    2.2125   -2.4750    0.0000 N   0  0  0  0  0  0  0  0  0  0  0  0
    1.1542   -1.7042    0.0000 C   0  0  0  0  0  0  0  0  0  0  0  0
  2  1  1  0
  3  1  2  0
  4  3  1  0
  5  2  1  0
  6  1  1  0
  7  2  1  0
  4  5  2  0
M  END

> <chembl_id>
CHEMBL64053

> <chembl_pref_name>
None

$$$$

     RDKit          2D

  9  9  0  0  0  0  0  0  0  0999 V2000
    0.8042   -3.4500    0.0000 N   0  0  0  0  0  0  0  0  0  0  0  0
    0.0917   -3.0417    0.0000 C   0  0  0  0  0  0  0  0  0  0  0  0
    0.0917   -2.2167    0.0000 N   0  0  0  0  0  0  0  0  0  0  0  0
    1.5167   -3.0417    0.0000 C   0  0  0  0  0  0  0  0  0  0  0  0
    1.5167   -2.2167    0.0000 C   0  0  0  0  0  0  0  0  0  0  0  0
    0.8042   -1.8000    0.0000 C   0  0  0  0  0  0  0  0  0  0  0  0
   -0.6208   -3.4542    0.0000 O   0  0  0  0  0  0  0  0  0  0  0  0
    0.8042   -0.9750    0.0000 O   0  0  0  0  0  0  0  0  0  0  0  0
    2.2292   -3.4542    0.0000 N   0  0  0  0  0  0  0  0  0  0  0  0
  2  1  2  0
  3  2  1  0
  4  1  1  0
  5  4  2  0
  6  5  1  0
  7  2  1  0
  8  6  1  0
  9  4  1  0
  3  6  2  0
M  END

> <chembl_id>
CHEMBL86636

> <chembl_pref_name>
None

$$$$

     RDKit          2D

  8  8  0  0  0  0  0  0  0  0999 V2000
   19.4085  -10.9878    0.0000 S   0  0  0  0  0  0  0  0  0  0  0  0
   20.0578  -11.4841    0.0000 C   0  0  0  0  0  0  0  0  0  0  0  0
   19.7864  -12.2549    0.0000 N   0  0  0  0  0  0  0  0  0  0  0  0
   18.9695  -12.2351    0.0000 C   0  0  0  0  0  0  0  0  0  0  0  0
   18.7359  -11.4520    0.0000 C   0  0  0  0  0  0  0  0  0  0  0  0
   17.9651  -11.1806    0.0000 N   0  0  0  0  0  0  0  0  0  0  0  0
   17.3447  -11.7125    0.0000 O   0  0  0  0  0  0  0  0  0  0  0  0
   17.8146  -10.3774    0.0000 O   0  0  0  0  0  0  0  0  0  0  0  0
  1  2  1  0
  2  3  2  0
  3  4  1  0
  4  5  2  0
  1  5  1  0
  6  7  2  0
  6  8  1  0
  5  6  1  0
M  CHG  2   6   1   8  -1
M  END

> <chembl_id>
CHEMBL4065457

> <chembl_pref_name>
None

$$$$

     RDKit          2D

 10 10  0  0  0  0  0  0  0  0999 V2000
   13.5000  -21.8000    0.0000 N   0  0  0  0  0  0  0  0  0  0  0  0
   14.1691  -21.3180    0.0000 C   0  0  0  0  0  0  0  0  0  0  0  0
   13.9125  -20.5292    0.0000 C   0  0  0  0  0  0  0  0  0  0  0  0
   13.0875  -20.5292    0.0000 C   0  0  0  0  0  0  0  0  0  0  0  0
   12.8307  -21.3175    0.0000 C   0  0  0  0  0  0  0  0  0  0  0  0
   14.8836  -21.7304    0.0000 C   0  0  0  0  0  0  0  0  0  0  0  0
   15.5979  -21.3180    0.0000 N   0  0  0  0  0  0  0  0  0  0  0  0
   16.2813  -21.7802    0.0000 C   0  0  0  0  0  0  0  0  0  0  0  0
   17.0233  -21.4195    0.0000 C   0  0  0  0  0  0  0  0  0  0  0  0
   17.7617  -21.0535    0.0000 C   0  0  0  0  0  0  0  0  0  0  0  0
  5  1  1  0
  2  6  1  0
  4  5  2  0
  6  7  1  0
  2  3  2  0
  7  8  1  0
  1  2  1  0
  8  9  1  0
  3  4  1  0
  9 10  3  0
M  END

> <chembl_id>
CHEMBL220832

> <chembl_pref_name>
None

$$$$

     RDKit          2D

 10 11  0  0  1  0  0  0  0  0999 V2000
   -3.7893  -20.2461    0.0000 C   0  0  0  0  0  0  0  0  0  0  0  0
   -3.7905  -21.0699    0.0000 C   0  0  0  0  0  0  0  0  0  0  0  0
   -3.0786  -21.4810    0.0000 C   0  0  0  0  0  0  0  0  0  0  0  0
   -3.0804  -19.8350    0.0000 C   0  0  0  0  0  0  0  0  0  0  0  0
   -2.3682  -20.2425    0.0000 C   0  0  0  0  0  0  0  0  0  0  0  0
   -2.3633  -21.0699    0.0000 C   0  0  0  0  0  0  0  0  0  0  0  0
   -1.5748  -21.3210    0.0000 C   0  0  0  0  0  0  0  0  0  0  0  0
   -1.0923  -20.6487    0.0000 C   0  0  0  0  0  0  0  0  0  0  0  0
   -1.5827  -19.9822    0.0000 C   0  0  0  0  0  0  0  0  0  0  0  0
   -1.3335  -19.1995    0.0000 O   0  0  0  0  0  0  0  0  0  0  0  0
  5  6  1  0
  2  3  1  0
  3  6  2  0
  1  2  2  0
  5  4  2  0
  6  7  1  0
  7  8  1  0
  9  8  1  0
  9  5  1  0
  4  1  1  0
  9 10  1  1
M  END

> <chembl_id>
CHEMBL381761

> <chembl_pref_name>
None

$$$$

     RDKit          2D

 10 10  0  0  0  0  0  0  0  0999 V2000
    3.6667   -2.2667    0.0000 N   0  0  0  0  0  0  0  0  0  0  0  0
    4.3792   -1.8542    0.0000 C   0  0  0  0  0  0  0  0  0  0  0  0
    5.0917   -2.2667    0.0000 C   0  0  0  0  0  0  0  0  0  0  0  0
    3.6667   -3.0917    0.0000 C   0  0  0  0  0  0  0  0  0  0  0  0
    4.3792   -3.5042    0.0000 N   0  0  0  0  0  0  0  0  0  0  0  0
    5.0917   -3.0917    0.0000 C   0  0  0  0  0  0  0  0  0  0  0  0
    5.8042   -1.8542    0.0000 C   0  0  0  0  0  0  0  0  0  0  0  0
    4.3792   -1.0292    0.0000 O   0  0  0  0  0  0  0  0  0  0  0  0
    2.9542   -3.5042    0.0000 O   0  0  0  0  0  0  0  0  0  0  0  0
    6.5167   -2.2625    0.0000 C   0  0  0  0  0  0  0  0  0  0  0  0
  2  1  2  0
  3  2  1  0
  4  1  1  0
  5  4  2  0
  6  5  1  0
  7  3  1  0
  8  2  1  0
  9  4  1  0
 10  7  2  0
  6  3  2  0
M  END

> <chembl_id>
CHEMBL170188

> <chembl_pref_name>
None

$$$$

     RDKit          2D

  9  9  0  0  0  0  0  0  0  0999 V2000
    5.6417   -4.7917    0.0000 C   0  0  0  0  0  0  0  0  0  0  0  0
    4.9292   -4.3792    0.0000 N   0  0  0  0  0  0  0  0  0  0  0  0
    5.6417   -5.6167    0.0000 C   0  0  0  0  0  0  0  0  0  0  0  0
    4.9292   -6.0292    0.0000 N   0  0  0  0  0  0  0  0  0  0  0  0
    6.3542   -4.3792    0.0000 N   0  0  0  0  0  0  0  0  0  0  0  0
    4.2167   -4.7917    0.0000 C   0  0  0  0  0  0  0  0  0  0  0  0
    4.2167   -5.6167    0.0000 C   0  0  0  0  0  0  0  0  0  0  0  0
    6.3542   -6.0292    0.0000 C   0  0  0  0  0  0  0  0  0  0  0  0
    7.0667   -4.7917    0.0000 C   0  0  0  0  0  0  0  0  0  0  0  0
  2  1  2  0
  3  1  1  0
  4  3  2  0
  5  1  1  0
  6  2  1  0
  7  4  1  0
  8  3  1  0
  9  5  1  0
  6  7  2  0
M  END

> <chembl_id>
CHEMBL329010

> <chembl_pref_name>
None

$$$$

     RDKit          2D

 11 12  0  0  0  0  0  0  0  0999 V2000
    1.0067   -3.0366    0.0000 O   0  0  0  0  0  0  0  0  0  0  0  0
   -0.3282   -3.0366    0.0000 N   0  0  0  0  0  0  0  0  0  0  0  0
    1.2367   -1.5845    0.0000 N   0  0  0  0  0  0  0  0  0  0  0  0
   -1.0431   -0.9171    0.0000 N   0  0  0  0  0  0  0  0  0  0  0  0
    0.3393   -3.5215    0.0000 C   0  0  0  0  0  0  0  0  0  0  0  0
   -0.0732   -2.2519    0.0000 C   0  0  0  0  0  0  0  0  0  0  0  0
    0.3393   -4.3465    0.0000 C   0  0  0  0  0  0  0  0  0  0  0  0
    0.7518   -2.2519    0.0000 C   0  0  0  0  0  0  0  0  0  0  0  0
    0.7518   -5.0609    0.0000 C   0  0  0  0  0  0  0  0  0  0  0  0
   -0.0732   -5.0609    0.0000 C   0  0  0  0  0  0  0  0  0  0  0  0
   -0.5581   -1.5845    0.0000 C   0  0  0  0  0  0  0  0  0  0  0  0
  1  5  1  0
  1  8  1  0
  2  5  2  0
  2  6  1  0
  3  8  1  0
  4 11  3  0
  5  7  1  0
  6  8  2  0
  6 11  1  0
  7  9  1  0
  7 10  1  0
  9 10  1  0
M  END

> <chembl_id>
CHEMBL1985691

> <chembl_pref_name>
None

$$$$

     RDKit          2D

  9  9  0  0  0  0  0  0  0  0999 V2000
    7.6417   -9.2542    0.0000 C   0  0  0  0  0  0  0  0  0  0  0  0
    8.3542   -8.8375    0.0000 C   0  0  0  0  0  0  0  0  0  0  0  0
    8.3417   -8.0125    0.0000 N   0  0  0  0  0  0  0  0  0  0  0  0
    7.6542  -10.0792    0.0000 C   0  0  0  0  0  0  0  0  0  0  0  0
    6.9292   -8.8542    0.0000 C   0  0  0  0  0  0  0  0  0  0  0  0
    9.0750   -9.2417    0.0000 C   0  0  0  0  0  0  0  0  0  0  0  0
    6.9417  -10.5042    0.0000 C   0  0  0  0  0  0  0  0  0  0  0  0
    6.2167   -9.2667    0.0000 C   0  0  0  0  0  0  0  0  0  0  0  0
    6.2167  -10.0917    0.0000 C   0  0  0  0  0  0  0  0  0  0  0  0
  2  1  1  0
  3  2  1  0
  4  1  2  0
  5  1  1  0
  6  2  1  0
  7  4  1  0
  8  5  2  0
  9  8  1  0
  7  9  2  0
M  END

> <chembl_id>
CHEMBL278059

> <chembl_pref_name>
None

$$$$

     RDKit          2D

  8  8  0  0  0  0  0  0  0  0999 V2000
    1.6281   -2.2462    0.0000 C   0  0  0  0  0  0  0  0  0  0  0  0
    1.0157   -3.6164    0.0000 N   0  0  0  0  0  0  0  0  0  0  0  0
    0.7500   -1.0323    0.0000 C   0  0  0  0  0  0  0  0  0  0  0  0
    1.7191   -4.5887    0.0000 O   0  0  0  0  0  0  0  0  0  0  0  0
    1.2135    0.3943    0.0000 C   0  0  0  0  0  0  0  0  0  0  0  0
    0.0000    1.2760    0.0000 C   0  0  0  0  0  0  0  0  0  0  0  0
   -1.2135    0.3943    0.0000 C   0  0  0  0  0  0  0  0  0  0  0  0
   -0.7500   -1.0323    0.0000 O   0  0  0  0  0  0  0  0  0  0  0  0
  2  1  2  0
  3  1  1  0
  4  2  1  0
  3  5  2  0
  5  6  1  0
  6  7  2  0
  7  8  1  0
  8  3  1  0
M  END

> <chembl_id>
CHEMBL3577784

> <chembl_pref_name>
None

$$$$

     RDKit          2D

  9  9  0  0  0  0  0  0  0  0999 V2000
   32.6917   -3.1817    0.0000 C   0  0  0  0  0  0  0  0  0  0  0  0
   33.5089   -3.1821    0.0000 C   0  0  0  0  0  0  0  0  0  0  0  0
   33.7633   -2.4054    0.0000 N   0  0  0  0  0  0  0  0  0  0  0  0
   33.1003   -1.9233    0.0000 N   0  0  0  0  0  0  0  0  0  0  0  0
   32.4416   -2.4054    0.0000 C   0  0  0  0  0  0  0  0  0  0  0  0
   33.0991   -1.1061    0.0000 O   0  0  0  0  0  0  0  0  0  0  0  0
   32.2736   -3.8839    0.0000 C   0  0  0  0  0  0  0  0  0  0  0  0
   31.4565   -3.8729    0.0000 N   0  0  0  0  0  0  0  0  0  0  0  0
   31.6643   -2.1533    0.0000 C   0  0  0  0  0  0  0  0  0  0  0  0
  1  2  1  0
  2  3  2  0
  3  4  1  0
  4  5  1  0
  5  1  2  0
  4  6  1  0
  1  7  1  0
  7  8  1  0
  5  9  1  0
M  END

> <chembl_id>
CHEMBL2315216

> <chembl_pref_name>
None

$$$$

     RDKit          2D

 10 10  0  0  0  0  0  0  0  0999 V2000
    8.2137  -22.3011    0.0000 C   0  0  0  0  0  0  0  0  0  0  0  0
    8.2125  -23.1280    0.0000 C   0  0  0  0  0  0  0  0  0  0  0  0
    8.9269  -23.5406    0.0000 C   0  0  0  0  0  0  0  0  0  0  0  0
    9.6428  -23.1275    0.0000 C   0  0  0  0  0  0  0  0  0  0  0  0
    9.6399  -22.2976    0.0000 C   0  0  0  0  0  0  0  0  0  0  0  0
    8.9251  -21.8887    0.0000 C   0  0  0  0  0  0  0  0  0  0  0  0
    8.9226  -21.0643    0.0000 C   0  0  0  0  0  0  0  0  0  0  0  0
    9.6353  -20.6499    0.0000 O   0  0  0  0  0  0  0  0  0  0  0  0
    8.2074  -20.6542    0.0000 O   0  0  0  0  0  0  0  0  0  0  0  0
   10.3574  -23.5386    0.0000 F   0  0  0  0  0  0  0  0  0  0  0  0
  2  3  1  0
  5  6  2  0
  6  1  1  0
  1  2  2  0
  6  7  1  0
  3  4  2  0
  7  8  1  0
  7  9  2  0
  4  5  1  0
  4 10  1  0
M  END

> <chembl_id>
CHEMBL302365

> <chembl_pref_name>
None

$$$$

     RDKit          2D

  9  9  0  0  0  0  0  0  0  0999 V2000
    0.5750   -5.1292    0.0000 N   0  0  0  0  0  0  0  0  0  0  0  0
    1.3417   -4.6875    0.0000 C   0  0  0  0  0  0  0  0  0  0  0  0
   -0.1875   -4.6875    0.0000 C   0  0  0  0  0  0  0  0  0  0  0  0
    1.3417   -3.8000    0.0000 C   0  0  0  0  0  0  0  0  0  0  0  0
    1.9625   -5.3042    0.0000 Cl  0  0  0  0  0  0  0  0  0  0  0  0
    0.5750   -6.0125    0.0000 C   0  0  0  0  0  0  0  0  0  0  0  0
   -0.1875   -3.8000    0.0000 C   0  0  0  0  0  0  0  0  0  0  0  0
    0.5750   -3.3542    0.0000 C   0  0  0  0  0  0  0  0  0  0  0  0
   -0.9500   -3.3625    0.0000 C   0  0  0  0  0  0  0  0  0  0  0  0
  2  1  2  0
  3  1  1  0
  4  2  1  0
  5  2  1  0
  6  1  1  0
  7  3  2  0
  8  7  1  0
  9  7  1  0
  8  4  2  0
M  CHG  1   1   1
M  END

> <chembl_id>
CHEMBL1178840

> <chembl_pref_name>
None

$$$$

     RDKit          2D

 11 11  0  0  0  0  0  0  0  0999 V2000
    8.0861  -12.8416    0.0000 C   0  0  0  0  0  0  0  0  0  0  0  0
    8.0849  -13.6690    0.0000 C   0  0  0  0  0  0  0  0  0  0  0  0
    8.7997  -14.0819    0.0000 C   0  0  0  0  0  0  0  0  0  0  0  0
    9.5162  -13.6685    0.0000 C   0  0  0  0  0  0  0  0  0  0  0  0
    9.5133  -12.8380    0.0000 C   0  0  0  0  0  0  0  0  0  0  0  0
    8.7979  -12.4289    0.0000 C   0  0  0  0  0  0  0  0  0  0  0  0
    8.7955  -11.6039    0.0000 C   0  0  0  0  0  0  0  0  0  0  0  0
    9.5087  -11.1892    0.0000 N   0  0  0  0  0  0  0  0  0  0  0  0
    8.7995  -14.9069    0.0000 C   0  0  0  0  0  0  0  0  0  0  0  0
    8.0850  -15.3192    0.0000 C   0  0  0  0  0  0  0  0  0  0  0  0
    9.5139  -15.3195    0.0000 C   0  0  0  0  0  0  0  0  0  0  0  0
  5  6  2  0
  6  1  1  0
  1  2  2  0
  6  7  1  0
  3  4  2  0
  7  8  1  0
  3  9  1  0
  4  5  1  0
  9 10  1  0
  2  3  1  0
  9 11  1  0
M  END

> <chembl_id>
CHEMBL387434

> <chembl_pref_name>
None

$$$$

     RDKit          2D

  9  9  0  0  0  0  0  0  0  0999 V2000
    2.9001   -4.1451    0.0000 O   0  0  0  0  0  0  0  0  0  0  0  0
    2.1901   -2.0701    0.0000 N   0  0  0  0  0  0  0  0  0  0  0  0
    2.6001   -0.8050    0.0000 N   0  0  0  0  0  0  0  0  0  0  0  0
    2.8601   -1.5851    0.0000 C   0  0  0  0  0  0  0  0  0  0  0  0
    1.5150   -1.5851    0.0000 C   0  0  0  0  0  0  0  0  0  0  0  0
    1.7750   -0.8050    0.0000 C   0  0  0  0  0  0  0  0  0  0  0  0
    2.1901   -2.9001    0.0000 C   0  0  0  0  0  0  0  0  0  0  0  0
    3.1001    0.0000    0.0000 C   0  0  0  0  0  0  0  0  0  0  0  0
    2.9001   -3.3151    0.0000 C   0  0  0  0  0  0  0  0  0  0  0  0
  1  9  1  0
  2  4  1  0
  2  5  1  0
  2  7  1  0
  3  4  2  0
  3  6  1  0
  3  8  1  0
  5  6  2  0
  7  9  1  0
M  CHG  1   3   1
M  END

> <chembl_id>
CHEMBL1198045

> <chembl_pref_name>
None

$$$$

     RDKit          2D

  8  8  0  0  0  0  0  0  0  0999 V2000
    2.6917   -2.2917    0.0000 N   0  0  0  0  0  0  0  0  0  0  0  0
    3.6667   -2.2917    0.0000 N   0  0  0  0  0  0  0  0  0  0  0  0
    3.4792   -2.8667    0.0000 N   0  0  0  0  0  0  0  0  0  0  0  0
    3.1792   -1.9417    0.0000 C   0  0  0  0  0  0  0  0  0  0  0  0
    2.8792   -2.8667    0.0000 C   0  0  0  0  0  0  0  0  0  0  0  0
    2.1250   -2.1042    0.0000 N   0  0  0  0  0  0  0  0  0  0  0  0
    3.1792   -1.3417    0.0000 C   0  0  0  0  0  0  0  0  0  0  0  0
    2.5292   -3.3417    0.0000 C   0  0  0  0  0  0  0  0  0  0  0  0
  2  4  2  0
  3  5  2  0
  4  1  1  0
  5  1  1  0
  6  1  1  0
  7  4  1  0
  8  5  1  0
  3  2  1  0
M  END

> <chembl_id>
CHEMBL324852

> <chembl_pref_name>
None

$$$$

     RDKit          2D

 10 10  0  0  0  0  0  0  0  0999 V2000
    5.4707    4.0245    0.0000 C   0  0  0  0  0  0  0  0  0  0  0  0
    5.4707    5.5245    0.0000 C   0  0  0  0  0  0  0  0  0  0  0  0
    4.1716    6.2745    0.0000 C   0  0  0  0  0  0  0  0  0  0  0  0
    2.8726    5.5245    0.0000 C   0  0  0  0  0  0  0  0  0  0  0  0
    2.8726    4.0245    0.0000 C   0  0  0  0  0  0  0  0  0  0  0  0
    4.1716    3.2745    0.0000 C   0  0  0  0  0  0  0  0  0  0  0  0
    1.5736    3.2745    0.0000 C   0  0  0  0  0  0  0  0  0  0  0  0
    1.5736    1.7745    0.0000 O   0  0  0  0  0  0  0  0  0  0  0  0
    0.2745    1.0245    0.0000 N   0  0  0  0  0  0  0  0  0  0  0  0
    6.7697    6.2745    0.0000 O   0  0  0  0  0  0  0  0  0  0  0  0
  1  2  2  0
  2  3  1  0
  3  4  2  0
  4  5  1  0
  5  6  2  0
  6  1  1  0
  5  7  1  0
  7  8  1  0
  8  9  1  0
  2 10  1  0
M  END

> <chembl_id>
CHEMBL3765991

> <chembl_pref_name>
None

$$$$

     RDKit          2D

 11 11  0  0  0  0  0  0  0  0999 V2000
    3.5504    1.1250    0.0000 N   0  0  0  0  0  0  0  0  0  0  0  0
    2.1214    1.1250    0.0000 N   0  0  0  0  0  0  0  0  0  0  0  0
    2.8359   -0.1125    0.0000 C   0  0  0  0  0  0  0  0  0  0  0  0
    2.8359    0.7125    0.0000 C   0  0  0  0  0  0  0  0  0  0  0  0
    3.5504   -0.5250    0.0000 C   0  0  0  0  0  0  0  0  0  0  0  0
    2.1214   -0.5250    0.0000 C   0  0  0  0  0  0  0  0  0  0  0  0
    3.5504   -1.3500    0.0000 C   0  0  0  0  0  0  0  0  0  0  0  0
    2.1214   -1.3500    0.0000 C   0  0  0  0  0  0  0  0  0  0  0  0
    2.8359   -1.7625    0.0000 C   0  0  0  0  0  0  0  0  0  0  0  0
    3.5504    1.9500    0.0000 C   0  0  0  0  0  0  0  0  0  0  0  0
    4.2648    0.7125    0.0000 C   0  0  0  0  0  0  0  0  0  0  0  0
  4  1  1  0
  1 10  1  0
  1 11  1  0
  2  4  2  0
  3  4  1  0
  3  5  2  0
  3  6  1  0
  5  7  1  0
  6  8  2  0
  7  9  2  0
  8  9  1  0
M  END

> <chembl_id>
CHEMBL2010086

> <chembl_pref_name>
None

$$$$

     RDKit          2D

 11 12  0  0  0  0  0  0  0  0999 V2000
    2.6167   -3.8542    0.0000 N   0  0  0  0  0  0  0  0  0  0  0  0
    2.1000   -4.1542    0.0000 C   0  0  0  0  0  0  0  0  0  0  0  0
    1.5792   -3.8542    0.0000 C   0  0  0  0  0  0  0  0  0  0  0  0
    1.5792   -3.2542    0.0000 C   0  0  0  0  0  0  0  0  0  0  0  0
    2.6167   -3.2542    0.0000 C   0  0  0  0  0  0  0  0  0  0  0  0
    2.1000   -2.9500    0.0000 C   0  0  0  0  0  0  0  0  0  0  0  0
    3.1292   -4.1500    0.0000 C   0  0  0  0  0  0  0  0  0  0  0  0
    1.0542   -4.1542    0.0000 C   0  0  0  0  0  0  0  0  0  0  0  0
    1.0542   -2.9542    0.0000 C   0  0  0  0  0  0  0  0  0  0  0  0
    0.5417   -3.8542    0.0000 C   0  0  0  0  0  0  0  0  0  0  0  0
    0.5417   -3.2542    0.0000 C   0  0  0  0  0  0  0  0  0  0  0  0
  2  1  2  0
  3  2  1  0
  4  6  1  0
  5  1  1  0
  6  5  1  0
  7  1  1  0
  8  3  2  0
  9  4  2  0
 10  8  1  0
 11  9  1  0
  3  4  1  0
 10 11  2  0
M  CHG  1   1   1
M  END

> <chembl_id>
CHEMBL1183273

> <chembl_pref_name>
None

$$$$
 
     RDKit          2D

  7  7  0  0  0  0  0  0  0  0999 V2000
   36.3897   -7.3589    0.0000 C   0  0  0  0  0  0  0  0  0  0  0  0
   37.2069   -7.3589    0.0000 S   0  0  0  0  0  0  0  0  0  0  0  0
   37.4613   -6.5822    0.0000 C   0  0  0  0  0  0  0  0  0  0  0  0
   36.7983   -6.1000    0.0000 N   0  0  0  0  0  0  0  0  0  0  0  0
   36.1396   -6.5822    0.0000 C   0  0  0  0  0  0  0  0  0  0  0  0
   35.9085   -8.0194    0.0000 C   0  0  0  0  0  0  0  0  0  0  0  0
   35.0959   -7.9329    0.0000 C   0  0  0  0  0  0  0  0  0  0  0  0
  1  2  1  0
  2  3  1  0
  3  4  2  0
  4  5  1  0
  5  1  2  0
  1  6  1  0
  6  7  2  0
M  END

> <chembl_id>
CHEMBL4560973

> <chembl_pref_name>
None

$$$$

     RDKit          2D

 10 10  0  0  0  0  0  0  0  0999 V2000
    1.8382    0.4010    0.0000 C   0  0  0  0  0  0  0  0  0  0  0  0
    0.9712    0.8994    0.0000 C   0  0  0  0  0  0  0  0  0  0  0  0
    0.1062    0.3976    0.0000 N   0  0  0  0  0  0  0  0  0  0  0  0
    0.1082   -0.6024    0.0000 C   0  0  0  0  0  0  0  0  0  0  0  0
   -0.7568   -1.1040    0.0000 C   0  0  0  0  0  0  0  0  0  0  0  0
   -1.6240   -0.6058    0.0000 C   0  0  0  0  0  0  0  0  0  0  0  0
   -1.6260    0.3942    0.0000 C   0  0  0  0  0  0  0  0  0  0  0  0
   -2.4930    0.8924    0.0000 N   0  0  0  0  0  0  0  0  0  0  0  0
   -0.7610    0.8958    0.0000 C   0  0  0  0  0  0  0  0  0  0  0  0
   -0.7630    1.8958    0.0000 O   0  0  0  0  0  0  0  0  0  0  0  0
  1  2  1  0
  2  3  1  0
  3  4  1  0
  4  5  2  0
  5  6  1  0
  6  7  2  0
  7  8  1  0
  7  9  1  0
  9 10  2  0
  9  3  1  0
M  END

> <chembl_id>
CHEMBL4555522

> <chembl_pref_name>
None

$$$$
 
     RDKit          2D

  9  9  0  0  0  0  0  0  0  0999 V2000
   29.5303  -20.0419    0.0000 C   0  0  0  0  0  0  0  0  0  0  0  0
   30.3475  -20.0419    0.0000 C   0  0  0  0  0  0  0  0  0  0  0  0
   30.6018  -19.2651    0.0000 N   0  0  0  0  0  0  0  0  0  0  0  0
   29.9389  -18.7830    0.0000 O   0  0  0  0  0  0  0  0  0  0  0  0
   29.2801  -19.2651    0.0000 C   0  0  0  0  0  0  0  0  0  0  0  0
   29.0503  -20.7010    0.0000 C   0  0  0  0  0  0  0  0  0  0  0  0
   28.5691  -21.3615    0.0000 C   0  0  0  0  0  0  0  0  0  0  0  0
   28.5028  -19.0130    0.0000 C   0  0  0  0  0  0  0  0  0  0  0  0
   30.8270  -20.7035    0.0000 C   0  0  0  0  0  0  0  0  0  0  0  0
  1  2  1  0
  2  3  2  0
  3  4  1  0
  4  5  1  0
  5  1  2  0
  6  7  3  0
  1  6  1  0
  5  8  1  0
  2  9  1  0
M  END

> <chembl_id>
CHEMBL4515972

> <chembl_pref_name>
None

$$$$

     RDKit          2D

  9  9  0  0  0  0  0  0  0  0999 V2000
    0.4125   -1.4279    0.0000 O   0  0  0  0  0  0  0  0  0  0  0  0
    1.2375    0.0000    0.0000 N   0  0  0  0  0  0  0  0  0  0  0  0
    1.2375   -1.4279    0.0000 C   0  0  0  0  0  0  0  0  0  0  0  0
    1.6471   -0.7154    0.0000 C   0  0  0  0  0  0  0  0  0  0  0  0
    1.6471   -2.1433    0.0000 C   0  0  0  0  0  0  0  0  0  0  0  0
    2.4721   -0.7154    0.0000 C   0  0  0  0  0  0  0  0  0  0  0  0
    2.4721   -2.1433    0.0000 C   0  0  0  0  0  0  0  0  0  0  0  0
    2.8846   -1.4279    0.0000 C   0  0  0  0  0  0  0  0  0  0  0  0
    0.0000   -2.1433    0.0000 C   0  0  0  0  0  0  0  0  0  0  0  0
  1  3  1  0
  1  9  1  0
  2  4  1  0
  3  4  2  0
  3  5  1  0
  4  6  1  0
  5  7  2  0
  6  8  2  0
  7  8  1  0
M  END

> <chembl_id>
CHEMBL1612004

> <chembl_pref_name>
None

$$$$

     RDKit          2D

  9  9  0  0  0  0  0  0  0  0999 V2000
   -3.6702   -0.4618    0.0000 N   0  0  0  0  0  0  0  0  0  0  0  0
   -2.8038    0.0372    0.0000 C   0  0  0  0  0  0  0  0  0  0  0  0
   -1.9384   -0.4638    0.0000 C   0  0  0  0  0  0  0  0  0  0  0  0
   -1.0718    0.0352    0.0000 C   0  0  0  0  0  0  0  0  0  0  0  0
   -0.9660    1.0296    0.0000 N   0  0  0  0  0  0  0  0  0  0  0  0
    0.0122    1.2364    0.0000 N   0  0  0  0  0  0  0  0  0  0  0  0
    0.5112    0.3698    0.0000 C   0  0  0  0  0  0  0  0  0  0  0  0
    1.5056    0.2642    0.0000 N   0  0  0  0  0  0  0  0  0  0  0  0
   -0.1586   -0.3726    0.0000 O   0  0  0  0  0  0  0  0  0  0  0  0
  1  2  1  0
  2  3  1  0
  3  4  1  0
  4  5  2  0
  5  6  1  0
  6  7  2  0
  7  8  1  0
  7  9  1  0
  9  4  1  0
M  END

> <chembl_id>
CHEMBL4519391

> <chembl_pref_name>
None

$$$$

     RDKit          2D

  8  8  0  0  0  0  0  0  0  0999 V2000
    0.1786   -1.1344    0.0000 C   0  0  0  0  0  0  0  0  0  0  0  0
   -0.5359   -0.7219    0.0000 C   0  0  0  0  0  0  0  0  0  0  0  0
   -0.5359    0.1031    0.0000 C   0  0  0  0  0  0  0  0  0  0  0  0
   -1.2503    0.5156    0.0000 O   0  0  0  0  0  0  0  0  0  0  0  0
    0.1786    0.5156    0.0000 C   0  0  0  0  0  0  0  0  0  0  0  0
    0.1786    1.3406    0.0000 O   0  0  0  0  0  0  0  0  0  0  0  0
    0.8931    0.1031    0.0000 C   0  0  0  0  0  0  0  0  0  0  0  0
    0.8931   -0.7219    0.0000 C   0  0  0  0  0  0  0  0  0  0  0  0
  1  2  2  0
  1  8  1  0
  2  3  1  0
  3  4  1  0
  3  5  2  0
  5  6  1  0
  5  7  1  0
  7  8  2  0
M  END

> <chembl_id>
CHEMBL280998

> <chembl_pref_name>
CATECHOL

$$$$

     RDKit          2D

 10 10  0  0  0  0  0  0  0  0999 V2000
   -2.0576   -1.2684    0.0000 O   0  0  0  0  0  0  0  0  0  0  0  0
   -1.4688   -0.4600    0.0000 C   0  0  0  0  0  0  0  0  0  0  0  0
   -0.4744   -0.5656    0.0000 C   0  0  0  0  0  0  0  0  0  0  0  0
    0.1956    0.1768    0.0000 C   0  0  0  0  0  0  0  0  0  0  0  0
    1.1086   -0.2310    0.0000 C   0  0  0  0  0  0  0  0  0  0  0  0
    1.9752    0.2680    0.0000 C   0  0  0  0  0  0  0  0  0  0  0  0
    1.9764    1.2680    0.0000 F   0  0  0  0  0  0  0  0  0  0  0  0
    2.8406   -0.2330    0.0000 F   0  0  0  0  0  0  0  0  0  0  0  0
    1.0030   -1.2254    0.0000 N   0  0  0  0  0  0  0  0  0  0  0  0
    0.0246   -1.4322    0.0000 N   0  0  0  0  0  0  0  0  0  0  0  0
  1  2  1  0
  2  3  1  0
  3  4  2  0
  4  5  1  0
  5  6  1  0
  6  7  1  0
  6  8  1  0
  5  9  2  0
  9 10  1  0
 10  3  1  0
M  END

> <chembl_id>
CHEMBL4550193

> <chembl_pref_name>
None

$$$$

     RDKit          2D

 10 10  0  0  0  0  0  0  0  0999 V2000
   -0.0038   -2.0625    0.0000 N   0  0  0  0  0  0  0  0  0  0  0  0
   -0.0038   -1.2375    0.0000 C   0  0  0  0  0  0  0  0  0  0  0  0
   -0.7182   -0.8250    0.0000 C   0  0  0  0  0  0  0  0  0  0  0  0
   -0.7182    0.0000    0.0000 C   0  0  0  0  0  0  0  0  0  0  0  0
   -0.0037    0.4125    0.0000 C   0  0  0  0  0  0  0  0  0  0  0  0
   -0.0037    1.2375    0.0000 N   0  0  0  0  0  0  0  0  0  0  0  0
   -0.7182    1.6500    0.0000 O   0  0  0  0  0  0  0  0  0  0  0  0
    0.7107    1.6500    0.0000 O   0  0  0  0  0  0  0  0  0  0  0  0
    0.7107    0.0000    0.0000 C   0  0  0  0  0  0  0  0  0  0  0  0
    0.7107   -0.8250    0.0000 C   0  0  0  0  0  0  0  0  0  0  0  0
  2  1  1  0
  2  3  2  0
  2 10  1  0
  3  4  1  0
  4  5  2  0
  5  6  1  0
  5  9  1  0
  6  7  1  0
  6  8  2  0
  9 10  2  0
M  CHG  2   6   1   7  -1
M  END

> <chembl_id>
CHEMBL14282

> <chembl_pref_name>
4-NITROANILINE

$$$$

     RDKit          2D

  8  8  0  0  0  0  0  0  0  0999 V2000
   15.6618    1.1239    0.0000 N   0  0  0  0  0  0  0  0  0  0  0  0
   16.4711    0.9841    0.0000 N   0  0  0  0  0  0  0  0  0  0  0  0
   16.8538    1.7018    0.0000 C   0  0  0  0  0  0  0  0  0  0  0  0
   16.2800    2.3019    0.0000 O   0  0  0  0  0  0  0  0  0  0  0  0
   15.5395    1.9366    0.0000 C   0  0  0  0  0  0  0  0  0  0  0  0
   17.6802    1.8012    0.0000 O   0  0  0  0  0  0  0  0  0  0  0  0
   14.8262    2.3512    0.0000 C   0  0  0  0  0  0  0  0  0  0  0  0
   14.1115    1.9412    0.0000 N   0  0  0  0  0  0  0  0  0  0  0  0
  4  5  1  0
  5  1  2  0
  1  2  1  0
  3  6  1  0
  5  7  1  0
  7  8  1  0
  2  3  2  0
  3  4  1  0
M  END

> <chembl_id>
CHEMBL1186218

> <chembl_pref_name>
None

$$$$
 
     RDKit          2D

  8  8  0  0  0  0  0  0  0  0999 V2000
    9.2182   -3.6260    0.0000 C   0  0  0  0  0  0  0  0  0  0  0  0
   10.7834   -2.1744    0.0000 C   0  0  0  0  0  0  0  0  0  0  0  0
    9.4732   -2.8415    0.0000 N   0  0  0  0  0  0  0  0  0  0  0  0
   11.6038   -2.2608    0.0000 N   0  0  0  0  0  0  0  0  0  0  0  0
   10.5530   -3.6264    0.0000 S   0  0  0  0  0  0  0  0  0  0  0  0
    9.8907   -4.1110    0.0000 C   0  0  0  0  0  0  0  0  0  0  0  0
   10.4480   -1.4206    0.0000 S   0  0  0  0  0  0  0  0  0  0  0  0
   10.2983   -2.8417    0.0000 C   0  0  0  0  0  0  0  0  0  0  0  0
  8  3  2  0
  5  8  1  0
  6  5  1  0
  2  7  2  0
  8  2  1  0
  1  6  2  0
  2  4  1  0
  3  1  1  0
M  END

> <chembl_id>
CHEMBL4545405

> <chembl_pref_name>
None

$$$$

     RDKit          2D

 11 12  0  0  0  0  0  0  0  0999 V2000
    0.2917   -0.7475    0.0000 C   0  0  0  0  0  0  0  0  0  0  0  0
    0.2917    0.7475    0.0000 C   0  0  0  0  0  0  0  0  0  0  0  0
    1.7138   -1.2033    0.0000 C   0  0  0  0  0  0  0  0  0  0  0  0
    1.7138    1.2033    0.0000 C   0  0  0  0  0  0  0  0  0  0  0  0
   -1.0028   -1.5132    0.0000 C   0  0  0  0  0  0  0  0  0  0  0  0
    2.5889    0.0182    0.0000 C   0  0  0  0  0  0  0  0  0  0  0  0
    2.0825    2.3453    0.0000 N   0  0  0  0  0  0  0  0  0  0  0  0
   -0.9991   -2.7132    0.0000 O   0  0  0  0  0  0  0  0  0  0  0  0
   -1.0028    1.5132    0.0000 C   0  0  0  0  0  0  0  0  0  0  0  0
   -2.3155    0.7475    0.0000 C   0  0  0  0  0  0  0  0  0  0  0  0
   -2.3155   -0.7475    0.0000 C   0  0  0  0  0  0  0  0  0  0  0  0
  1  2  1  0
  1  3  1  0
  2  4  1  0
  1  5  2  0
  3  6  1  0
  4  6  1  0
  4  7  1  0
  5  8  1  0
  2  9  2  0
  9 10  1  0
  5 11  1  0
 10 11  2  0
M  END

> <chembl_id>
CHEMBL1189921

> <chembl_pref_name>
None

$$$$

     RDKit          2D

  8  8  0  0  0  0  0  0  0  0999 V2000
   -3.5209    0.6875    0.0000 S   0  0  0  0  0  0  0  0  0  0  0  0
   -2.6959    0.6875    0.0000 S   0  0  0  0  0  0  0  0  0  0  0  0
   -2.4391    1.4716    0.0000 C   0  0  0  0  0  0  0  0  0  0  0  0
   -3.1084    1.9583    0.0000 N   0  0  0  0  0  0  0  0  0  0  0  0
   -3.7734    1.4716    0.0000 C   0  0  0  0  0  0  0  0  0  0  0  0
   -1.6541    1.7254    0.0000 O   0  0  0  0  0  0  0  0  0  0  0  0
   -4.5581    1.7262    0.0000 O   0  0  0  0  0  0  0  0  0  0  0  0
   -3.1096    2.7833    0.0000 C   0  0  0  0  0  0  0  0  0  0  0  0
  3  4  1  0
  4  5  1  0
  5  1  1  0
  1  2  1  0
  3  6  2  0
  5  7  2  0
  2  3  1  0
  4  8  1  0
M  END

> <chembl_id>
CHEMBL389053

> <chembl_pref_name>
None

$$$$

     RDKit          2D

 10 10  0  0  0  0  0  0  0  0999 V2000
    1.0504   -2.1820    0.0000 C   0  0  0  0  0  0  0  0  0  0  0  0
    1.0496   -1.1820    0.0000 C   0  0  0  0  0  0  0  0  0  0  0  0
    1.9152   -0.6812    0.0000 O   0  0  0  0  0  0  0  0  0  0  0  0
    0.1832   -0.6826    0.0000 C   0  0  0  0  0  0  0  0  0  0  0  0
    0.1824    0.3174    0.0000 C   0  0  0  0  0  0  0  0  0  0  0  0
   -0.6840    0.8166    0.0000 C   0  0  0  0  0  0  0  0  0  0  0  0
   -1.5496    0.3160    0.0000 C   0  0  0  0  0  0  0  0  0  0  0  0
   -2.4160    0.8152    0.0000 N   0  0  0  0  0  0  0  0  0  0  0  0
   -1.5488   -0.6840    0.0000 N   0  0  0  0  0  0  0  0  0  0  0  0
   -0.6824   -1.1834    0.0000 C   0  0  0  0  0  0  0  0  0  0  0  0
  1  2  1  0
  2  3  2  0
  2  4  1  0
  4  5  2  0
  5  6  1  0
  6  7  2  0
  7  8  1  0
  7  9  1  0
  9 10  2  0
 10  4  1  0
M  END

> <chembl_id>
CHEMBL4566135

> <chembl_pref_name>
None

$$$$

     RDKit          2D

 10 10  0  0  0  0  0  0  0  0999 V2000
    0.3594   -1.4034    0.0000 C   0  0  0  0  0  0  0  0  0  0  0  0
    0.1476   -0.4260    0.0000 C   0  0  0  0  0  0  0  0  0  0  0  0
    0.8140    0.3196    0.0000 N   0  0  0  0  0  0  0  0  0  0  0  0
    0.3104    1.1836    0.0000 N   0  0  0  0  0  0  0  0  0  0  0  0
   -0.6668    0.9720    0.0000 C   0  0  0  0  0  0  0  0  0  0  0  0
   -1.4126    1.6382    0.0000 O   0  0  0  0  0  0  0  0  0  0  0  0
   -0.7674   -0.0230    0.0000 C   0  0  0  0  0  0  0  0  0  0  0  0
   -1.6314   -0.5264    0.0000 C   0  0  0  0  0  0  0  0  0  0  0  0
   -2.4996   -0.0300    0.0000 C   0  0  0  0  0  0  0  0  0  0  0  0
   -3.3636   -0.5334    0.0000 O   0  0  0  0  0  0  0  0  0  0  0  0
  1  2  1  0
  2  3  1  0
  3  4  1  0
  4  5  1  0
  5  6  2  0
  5  7  1  0
  7  8  1  0
  8  9  1  0
  9 10  1  0
  7  2  2  0
M  END

> <chembl_id>
CHEMBL4585547

> <chembl_pref_name>
None

$$$$

     RDKit          2D

  8  8  0  0  0  0  0  0  0  0999 V2000
    1.0838    1.2762    0.0000 C   0  0  0  0  0  0  0  0  0  0  0  0
    0.8770    0.2978    0.0000 C   0  0  0  0  0  0  0  0  0  0  0  0
    1.5468   -0.4444    0.0000 C   0  0  0  0  0  0  0  0  0  0  0  0
    1.0478   -1.3110    0.0000 O   0  0  0  0  0  0  0  0  0  0  0  0
    0.0694   -1.1042    0.0000 N   0  0  0  0  0  0  0  0  0  0  0  0
   -0.0362   -0.1100    0.0000 C   0  0  0  0  0  0  0  0  0  0  0  0
   -0.9028    0.3892    0.0000 C   0  0  0  0  0  0  0  0  0  0  0  0
   -1.7680   -0.1118    0.0000 O   0  0  0  0  0  0  0  0  0  0  0  0
  1  2  1  0
  2  3  2  0
  3  4  1  0
  4  5  1  0
  5  6  2  0
  6  7  1  0
  7  8  1  0
  6  2  1  0
M  END

> <chembl_id>
CHEMBL4533099

> <chembl_pref_name>
None

$$$$

     RDKit          2D

 10 11  0  0  1  0  0  0  0  0999 V2000
    4.5000   -6.3417    0.0000 C   0  0  0  0  0  0  0  0  0  0  0  0
    5.0417   -5.7250    0.0000 C   0  0  0  0  0  0  0  0  0  0  0  0
    5.3000   -6.5167    0.0000 C   0  0  0  0  0  0  0  0  0  0  0  0
    3.7125   -6.5917    0.0000 C   0  0  0  0  0  0  0  0  0  0  0  0
    3.0417   -6.1125    0.0000 N   0  0  0  0  0  0  0  0  0  0  0  0
    2.6292   -7.3792    0.0000 N   0  0  0  0  0  0  0  0  0  0  0  0
    2.3792   -6.5917    0.0000 C   0  0  0  0  0  0  0  0  0  0  0  0
    3.4542   -7.3792    0.0000 C   0  0  0  0  0  0  0  0  0  0  0  0
    5.9125   -7.0667    0.0000 C   0  0  0  0  0  0  0  0  0  0  0  0
    5.7375   -7.8750    0.0000 N   0  0  0  0  0  0  0  0  0  0  0  0
  2  1  1  0
  3  1  1  0
  1  4  1  1
  5  4  1  0
  6  8  1  0
  7  5  2  0
  8  4  2  0
  3  9  1  6
 10  9  1  0
  3  2  1  0
  7  6  1  0
M  END

> <chembl_id>
CHEMBL292558

> <chembl_pref_name>
None

$$$$

     RDKit          2D

 10 10  0  0  0  0  0  0  0  0999 V2000
    0.9580    1.8898    0.0000 C   0  0  0  0  0  0  0  0  0  0  0  0
    0.9572    0.8898    0.0000 C   0  0  0  0  0  0  0  0  0  0  0  0
    1.8228    0.3890    0.0000 N   0  0  0  0  0  0  0  0  0  0  0  0
    1.8220   -0.6110    0.0000 C   0  0  0  0  0  0  0  0  0  0  0  0
    0.9556   -1.1102    0.0000 C   0  0  0  0  0  0  0  0  0  0  0  0
    0.0900   -0.6096    0.0000 C   0  0  0  0  0  0  0  0  0  0  0  0
   -0.7764   -1.1090    0.0000 C   0  0  0  0  0  0  0  0  0  0  0  0
   -0.7772   -2.1090    0.0000 C   0  0  0  0  0  0  0  0  0  0  0  0
   -1.6420   -0.6082    0.0000 N   0  0  0  0  0  0  0  0  0  0  0  0
    0.0908    0.3904    0.0000 N   0  0  0  0  0  0  0  0  0  0  0  0
  1  2  1  0
  2  3  2  0
  3  4  1  0
  4  5  2  0
  5  6  1  0
  6  7  1  0
  7  8  1  0
  7  9  1  0
  6 10  2  0
 10  2  1  0
M  END

> <chembl_id>
CHEMBL4530609

> <chembl_pref_name>
None

$$$$

     RDKit          2D

 10 10  0  0  0  0  0  0  0  0999 V2000
   -3.7054   -0.4004    0.0000 C   0  0  0  0  0  0  0  0  0  0  0  0
   -2.8412    0.1026    0.0000 N   0  0  0  0  0  0  0  0  0  0  0  0
   -1.9734   -0.3942    0.0000 C   0  0  0  0  0  0  0  0  0  0  0  0
   -1.1092    0.1088    0.0000 C   0  0  0  0  0  0  0  0  0  0  0  0
   -1.1128    1.1088    0.0000 C   0  0  0  0  0  0  0  0  0  0  0  0
   -0.2486    1.6120    0.0000 C   0  0  0  0  0  0  0  0  0  0  0  0
    0.6192    1.1150    0.0000 C   0  0  0  0  0  0  0  0  0  0  0  0
    0.6228    0.1150    0.0000 C   0  0  0  0  0  0  0  0  0  0  0  0
    1.4906   -0.3818    0.0000 O   0  0  0  0  0  0  0  0  0  0  0  0
   -0.2414   -0.3880    0.0000 C   0  0  0  0  0  0  0  0  0  0  0  0
  1  2  1  0
  2  3  1  0
  3  4  1  0
  4  5  2  0
  5  6  1  0
  6  7  2  0
  7  8  1  0
  8  9  1  0
  8 10  2  0
 10  4  1  0
M  END

> <chembl_id>
CHEMBL4575500

> <chembl_pref_name>
None

$$$$

     RDKit          2D

 10 10  0  0  0  0  0  0  0  0999 V2000
    8.5788  -18.9326    0.0000 C   0  0  0  0  0  0  0  0  0  0  0  0
    8.5445  -19.7570    0.0000 C   0  0  0  0  0  0  0  0  0  0  0  0
    9.2410  -20.1990    0.0000 C   0  0  0  0  0  0  0  0  0  0  0  0
    9.2067  -21.0236    0.0000 C   0  0  0  0  0  0  0  0  0  0  0  0
    8.4757  -21.4061    0.0000 C   0  0  0  0  0  0  0  0  0  0  0  0
    7.7793  -20.9641    0.0000 C   0  0  0  0  0  0  0  0  0  0  0  0
    7.8136  -20.1396    0.0000 C   0  0  0  0  0  0  0  0  0  0  0  0
    9.3097  -18.5500    0.0000 O   0  0  0  0  0  0  0  0  0  0  0  0
    7.8824  -18.4906    0.0000 O   0  0  0  0  0  0  0  0  0  0  0  0
    7.1514  -18.8731    0.0000 C   0  0  0  0  0  0  0  0  0  0  0  0
  1  2  1  0
  2  3  1  0
  3  4  2  0
  4  5  1  0
  5  6  2  0
  6  7  1  0
  2  7  2  0
  1  8  2  0
  1  9  1  0
  9 10  1  0
M  END

> <chembl_id>
CHEMBL16435

> <chembl_pref_name>
METHYL BENZOATE

$$$$

     RDKit          2D

 10 10  0  0  0  0  0  0  0  0999 V2000
    1.2990   -0.7500    0.0000 C   0  0  0  0  0  0  0  0  0  0  0  0
    1.2990    0.7500    0.0000 C   0  0  0  0  0  0  0  0  0  0  0  0
    0.0000    1.5000    0.0000 N   0  0  0  0  0  0  0  0  0  0  0  0
   -1.2990    0.7500    0.0000 C   0  0  0  0  0  0  0  0  0  0  0  0
   -1.2990   -0.7500    0.0000 C   0  0  0  0  0  0  0  0  0  0  0  0
    0.0000   -1.5000    0.0000 C   0  0  0  0  0  0  0  0  0  0  0  0
    0.0000   -2.7000    0.0000 O   0  0  0  0  0  0  0  0  0  0  0  0
   -2.6003   -1.4978    0.0000 O   0  0  0  0  0  0  0  0  0  0  0  0
   -3.6387   -0.8963    0.0000 C   0  0  0  0  0  0  0  0  0  0  0  0
    2.3383   -1.3500    0.0000 C   0  0  0  0  0  0  0  0  0  0  0  0
  1  2  2  0
  1  6  1  0
  2  3  1  0
  3  4  1  0
  4  5  2  0
  5  6  1  0
  6  7  2  0
  5  8  1  0
  8  9  1  0
  1 10  1  0
M  END

> <chembl_id>
CHEMBL3786128

> <chembl_pref_name>
None

$$$$

     RDKit          2D

  9  9  0  0  0  0  0  0  0  0999 V2000
    1.7477   -4.2762    0.0000 N   0  0  0  0  0  0  0  0  0  0  0  0
    2.0026   -5.0608    0.0000 C   0  0  0  0  0  0  0  0  0  0  0  0
    2.8276   -5.0608    0.0000 C   0  0  0  0  0  0  0  0  0  0  0  0
    3.0826   -4.2762    0.0000 C   0  0  0  0  0  0  0  0  0  0  0  0
    2.4151   -3.7912    0.0000 C   0  0  0  0  0  0  0  0  0  0  0  0
    3.3126   -5.7282    0.0000 C   0  0  0  0  0  0  0  0  0  0  0  0
    2.9770   -6.4819    0.0000 C   0  0  0  0  0  0  0  0  0  0  0  0
    2.4151   -2.9662    0.0000 C   0  0  0  0  0  0  0  0  0  0  0  0
    1.7007   -2.5537    0.0000 O   0  0  0  0  0  0  0  0  0  0  0  0
  4  5  2  0
  5  1  1  0
  2  3  2  0
  3  6  1  0
  6  7  1  0
  1  2  1  0
  5  8  1  0
  3  4  1  0
  8  9  2  0
M  END

> <chembl_id>
CHEMBL537931

> <chembl_pref_name>
None

$$$$

     RDKit          2D

  9 10  0  0  1  0  0  0  0  0999 V2000
    4.8042   -2.5917    0.0000 C   0  0  0  0  0  0  0  0  0  0  0  0
    4.6542   -1.7792    0.0000 C   0  0  0  0  0  0  0  0  0  0  0  0
    5.4292   -2.0417    0.0000 C   0  0  0  0  0  0  0  0  0  0  0  0
    4.5417   -3.3667    0.0000 C   0  0  0  0  0  0  0  0  0  0  0  0
    3.7417   -4.4292    0.0000 N   0  0  0  0  0  0  0  0  0  0  0  0
    5.0167   -4.0417    0.0000 N   0  0  0  0  0  0  0  0  0  0  0  0
    4.5167   -4.7042    0.0000 C   0  0  0  0  0  0  0  0  0  0  0  0
    3.7542   -3.6042    0.0000 C   0  0  0  0  0  0  0  0  0  0  0  0
    5.6417   -1.2417    0.0000 N   0  0  0  0  0  0  0  0  0  0  0  0
  2  1  1  0
  3  1  1  0
  1  4  1  1
  5  8  1  0
  6  4  1  0
  7  6  2  0
  8  4  2  0
  3  9  1  6
  2  3  1  0
  5  7  1  0
M  END

> <chembl_id>
CHEMBL13795

> <chembl_pref_name>
VUF-5297

$$$$

     RDKit          2D

  9  9  0  0  0  0  0  0  0  0999 V2000
    5.6417   -4.7917    0.0000 C   0  0  0  0  0  0  0  0  0  0  0  0
    4.9292   -4.3792    0.0000 N   0  0  0  0  0  0  0  0  0  0  0  0
    5.6417   -5.6167    0.0000 C   0  0  0  0  0  0  0  0  0  0  0  0
    4.9292   -6.0292    0.0000 N   0  0  0  0  0  0  0  0  0  0  0  0
    6.3542   -4.3792    0.0000 S   0  0  0  0  0  0  0  0  0  0  0  0
    4.2167   -4.7917    0.0000 C   0  0  0  0  0  0  0  0  0  0  0  0
    4.2167   -5.6167    0.0000 C   0  0  0  0  0  0  0  0  0  0  0  0
    6.3542   -6.0292    0.0000 C   0  0  0  0  0  0  0  0  0  0  0  0
    7.0667   -4.7917    0.0000 C   0  0  0  0  0  0  0  0  0  0  0  0
  2  1  2  0
  3  1  1  0
  4  3  2  0
  5  1  1  0
  6  2  1  0
  7  4  1  0
  8  3  1  0
  9  5  1  0
  6  7  2  0
M  END

> <chembl_id>
CHEMBL97593

> <chembl_pref_name>
None

$$$$

     RDKit          2D

  9  9  0  0  0  0  0  0  0  0999 V2000
   16.3562   -2.2782    0.0000 C   0  0  0  0  0  0  0  0  0  0  0  0
   16.3562   -3.0954    0.0000 C   0  0  0  0  0  0  0  0  0  0  0  0
   17.0615   -3.4999    0.0000 N   0  0  0  0  0  0  0  0  0  0  0  0
   17.7668   -3.0954    0.0000 C   0  0  0  0  0  0  0  0  0  0  0  0
   17.7668   -2.2782    0.0000 C   0  0  0  0  0  0  0  0  0  0  0  0
   17.0615   -1.8655    0.0000 C   0  0  0  0  0  0  0  0  0  0  0  0
   18.4739   -3.5050    0.0000 O   0  0  0  0  0  0  0  0  0  0  0  0
   18.4757   -1.8717    0.0000 O   0  0  0  0  0  0  0  0  0  0  0  0
   15.6473   -1.8717    0.0000 C   0  0  0  0  0  0  0  0  0  0  0  0
  1  2  2  0
  1  6  1  0
  2  3  1  0
  3  4  1  0
  4  5  1  0
  5  6  2  0
  4  7  2  0
  5  8  1  0
  1  9  1  0
M  END

> <chembl_id>
CHEMBL2338784

> <chembl_pref_name>
None

$$$$

     RDKit          2D

 10 10  0  0  0  0  0  0  0  0999 V2000
   -3.2790    1.4512    0.0000 O   0  0  0  0  0  0  0  0  0  0  0  0
   -1.8501    0.6262    0.0000 N   0  0  0  0  0  0  0  0  0  0  0  0
   -1.1826    0.1413    0.0000 N   0  0  0  0  0  0  0  0  0  0  0  0
   -1.4376   -0.6433    0.0000 N   0  0  0  0  0  0  0  0  0  0  0  0
   -2.5645    2.6887    0.0000 N   0  0  0  0  0  0  0  0  0  0  0  0
   -3.2790    3.1012    0.0000 N   0  0  0  0  0  0  0  0  0  0  0  0
   -1.8501    1.4512    0.0000 C   0  0  0  0  0  0  0  0  0  0  0  0
   -2.5645    1.8637    0.0000 C   0  0  0  0  0  0  0  0  0  0  0  0
   -2.5175    0.1413    0.0000 C   0  0  0  0  0  0  0  0  0  0  0  0
   -2.2626   -0.6433    0.0000 C   0  0  0  0  0  0  0  0  0  0  0  0
  1  8  2  0
  2  3  1  0
  2  7  1  0
  2  9  1  0
  3  4  2  0
  4 10  1  0
  5  6  1  0
  5  8  1  0
  7  8  1  0
  9 10  2  0
M  END

> <chembl_id>
CHEMBL2007280

> <chembl_pref_name>
None

$$$$

     RDKit          2D

  9  9  0  0  0  0  0  0  0  0999 V2000
    5.7291   -7.5297    0.0000 N   0  0  0  0  0  0  0  0  0  0  0  0
    5.9840   -8.3143    0.0000 C   0  0  0  0  0  0  0  0  0  0  0  0
    6.8090   -8.3143    0.0000 N   0  0  0  0  0  0  0  0  0  0  0  0
    7.0640   -7.5297    0.0000 N   0  0  0  0  0  0  0  0  0  0  0  0
    6.3965   -7.0447    0.0000 C   0  0  0  0  0  0  0  0  0  0  0  0
    5.4991   -8.9817    0.0000 N   0  0  0  0  0  0  0  0  0  0  0  0
    6.3965   -6.2197    0.0000 C   0  0  0  0  0  0  0  0  0  0  0  0
    5.6821   -5.8072    0.0000 C   0  0  0  0  0  0  0  0  0  0  0  0
    7.1110   -5.8072    0.0000 C   0  0  0  0  0  0  0  0  0  0  0  0
  4  5  2  0
  5  1  1  0
  1  2  2  0
  2  6  1  0
  5  7  1  0
  2  3  1  0
  7  8  1  0
  3  4  1  0
  7  9  1  0
M  END

> <chembl_id>
CHEMBL499734

> <chembl_pref_name>
None

$$$$

     RDKit          2D

 10 10  0  0  0  0  0  0  0  0999 V2000
    1.2189   -1.2234    0.0000 O   0  0  0  0  0  0  0  0  0  0  0  0
    2.6478   -0.3984    0.0000 N   0  0  0  0  0  0  0  0  0  0  0  0
    1.9334   -1.6359    0.0000 C   0  0  0  0  0  0  0  0  0  0  0  0
    2.6478   -1.2234    0.0000 C   0  0  0  0  0  0  0  0  0  0  0  0
    1.9334   -2.4609    0.0000 C   0  0  0  0  0  0  0  0  0  0  0  0
    3.3623   -1.6359    0.0000 C   0  0  0  0  0  0  0  0  0  0  0  0
    2.6478   -2.8734    0.0000 C   0  0  0  0  0  0  0  0  0  0  0  0
    3.3623   -2.4609    0.0000 C   0  0  0  0  0  0  0  0  0  0  0  0
    1.2189   -0.3984    0.0000 C   0  0  0  0  0  0  0  0  0  0  0  0
    0.5044    0.0141    0.0000 C   0  0  0  0  0  0  0  0  0  0  0  0
  1  3  1  0
  1  9  1  0
  2  4  1  0
  3  4  2  0
  3  5  1  0
  4  6  1  0
  5  7  2  0
  6  8  2  0
  7  8  1  0
  9 10  1  0
M  END

> <chembl_id>
CHEMBL1525301

> <chembl_pref_name>
None

$$$$

     RDKit          2D

 10 10  0  0  0  0  0  0  0  0999 V2000
   -0.2934   -4.8259    0.0000 C   0  0  0  0  0  0  0  0  0  0  0  0
   -0.2934   -5.6509    0.0000 C   0  0  0  0  0  0  0  0  0  0  0  0
    0.4211   -6.0634    0.0000 C   0  0  0  0  0  0  0  0  0  0  0  0
    1.1355   -5.6509    0.0000 C   0  0  0  0  0  0  0  0  0  0  0  0
    1.1355   -4.8259    0.0000 C   0  0  0  0  0  0  0  0  0  0  0  0
    0.4211   -4.4134    0.0000 C   0  0  0  0  0  0  0  0  0  0  0  0
    0.4211   -3.5884    0.0000 C   0  0  0  0  0  0  0  0  0  0  0  0
    1.1355   -3.1759    0.0000 N   0  0  0  0  0  0  0  0  0  0  0  0
   -0.2934   -3.1759    0.0000 O   0  0  0  0  0  0  0  0  0  0  0  0
    1.1355   -2.3509    0.0000 N   0  0  0  0  0  0  0  0  0  0  0  0
  2  3  1  0
  5  6  2  0
  6  1  1  0
  1  2  2  0
  6  7  1  0
  3  4  2  0
  7  8  1  0
  7  9  2  0
  4  5  1  0
  8 10  1  0
M  END

> <chembl_id>
CHEMBL125369

> <chembl_pref_name>
BENZOIC ACID HYDRAZIDE

$$$$

     RDKit          2D

 10 11  0  0  0  0  0  0  0  0999 V2000
   19.0956  -15.5821    0.0000 N   0  0  0  0  0  0  0  0  0  0  0  0
   18.6107  -14.9147    0.0000 C   0  0  0  0  0  0  0  0  0  0  0  0
   19.0956  -14.2472    0.0000 C   0  0  0  0  0  0  0  0  0  0  0  0
   19.8802  -14.5022    0.0000 C   0  0  0  0  0  0  0  0  0  0  0  0
   20.5947  -14.0897    0.0000 C   0  0  0  0  0  0  0  0  0  0  0  0
   21.3092  -14.5022    0.0000 C   0  0  0  0  0  0  0  0  0  0  0  0
   21.3092  -15.3272    0.0000 C   0  0  0  0  0  0  0  0  0  0  0  0
   20.5947  -15.7397    0.0000 C   0  0  0  0  0  0  0  0  0  0  0  0
   19.8802  -15.3272    0.0000 C   0  0  0  0  0  0  0  0  0  0  0  0
   20.5947  -13.2647    0.0000 O   0  0  0  0  0  0  0  0  0  0  0  0
  1  2  1  0
  2  3  1  0
  3  4  1  0
  4  5  1  0
  5  6  2  0
  6  7  1  0
  7  8  2  0
  8  9  1  0
  1  9  1  0
  4  9  2  0
  5 10  1  0
M  END

> <chembl_id>
CHEMBL2220512

> <chembl_pref_name>
None

$$$$

     RDKit          2D

 11 11  0  0  0  0  0  0  0  0999 V2000
    1.5917   -1.0125    0.0000 C   0  0  0  0  0  0  0  0  0  0  0  0
    0.8292   -0.5750    0.0000 C   0  0  0  0  0  0  0  0  0  0  0  0
    0.8375   -2.3417    0.0000 C   0  0  0  0  0  0  0  0  0  0  0  0
    1.6000   -1.8917    0.0000 C   0  0  0  0  0  0  0  0  0  0  0  0
    3.1292   -1.8917    0.0000 N   0  0  0  0  0  0  0  0  0  0  0  0
    2.3667   -2.3292    0.0000 C   0  0  0  0  0  0  0  0  0  0  0  0
    0.0667   -1.9000    0.0000 C   0  0  0  0  0  0  0  0  0  0  0  0
    0.8375   -3.2292    0.0000 C   0  0  0  0  0  0  0  0  0  0  0  0
   -0.6958   -2.3417    0.0000 C   0  0  0  0  0  0  0  0  0  0  0  0
    0.0667   -3.6667    0.0000 C   0  0  0  0  0  0  0  0  0  0  0  0
   -0.6958   -3.2292    0.0000 C   0  0  0  0  0  0  0  0  0  0  0  0
  2  1  2  0
  3  4  1  0
  4  1  1  0
  5  6  1  0
  6  4  1  0
  7  3  2  0
  8  3  1  0
  9  7  1  0
 10  8  2  0
 11 10  1  0
 11  9  2  0
M  END

> <chembl_id>
CHEMBL351390

> <chembl_pref_name>
None

$$$$

     RDKit          2D

  8  8  0  0  0  0  0  0  0  0999 V2000
    5.4750  -18.5167    0.0000 N   0  0  0  0  0  0  0  0  0  0  0  0
    4.8667  -18.5417    0.0000 C   0  0  0  0  0  0  0  0  0  0  0  0
    5.2167  -19.4542    0.0000 S   0  0  0  0  0  0  0  0  0  0  0  0
    4.7125  -19.1292    0.0000 C   0  0  0  0  0  0  0  0  0  0  0  0
    5.6917  -19.0792    0.0000 C   0  0  0  0  0  0  0  0  0  0  0  0
    4.4917  -18.0750    0.0000 O   0  0  0  0  0  0  0  0  0  0  0  0
    4.1500  -19.3417    0.0000 C   0  0  0  0  0  0  0  0  0  0  0  0
    6.2500  -19.3042    0.0000 C   0  0  0  0  0  0  0  0  0  0  0  0
  2  1  1  0
  3  5  1  0
  4  2  2  0
  5  1  2  0
  6  2  1  0
  7  4  1  0
  8  5  1  0
  4  3  1  0
M  END

> <chembl_id>
CHEMBL303438

> <chembl_pref_name>
None

$$$$

     RDKit          2D

 11 11  0  0  0  0  0  0  0  0999 V2000
   21.5303  -14.1192    0.0000 C   0  0  0  0  0  0  0  0  0  0  0  0
   21.5292  -14.9387    0.0000 C   0  0  0  0  0  0  0  0  0  0  0  0
   22.2372  -15.3477    0.0000 C   0  0  0  0  0  0  0  0  0  0  0  0
   22.9469  -14.9383    0.0000 C   0  0  0  0  0  0  0  0  0  0  0  0
   22.9441  -14.1156    0.0000 C   0  0  0  0  0  0  0  0  0  0  0  0
   22.2354  -13.7104    0.0000 C   0  0  0  0  0  0  0  0  0  0  0  0
   22.2330  -12.8932    0.0000 C   0  0  0  0  0  0  0  0  0  0  0  0
   22.2251  -12.0721    0.0000 N   0  0  0  0  0  0  0  0  0  0  0  0
   20.8212  -15.3468    0.0000 C   0  0  0  0  0  0  0  0  0  0  0  0
   22.2370  -16.1649    0.0000 O   0  0  0  0  0  0  0  0  0  0  0  0
   23.6552  -15.3458    0.0000 C   0  0  0  0  0  0  0  0  0  0  0  0
  1  2  2  0
  2  3  1  0
  3  4  2  0
  4  5  1  0
  5  6  2  0
  6  1  1  0
  6  7  1  0
  7  8  3  0
  2  9  1  0
  3 10  1  0
  4 11  1  0
M  END

> <chembl_id>
CHEMBL4207620

> <chembl_pref_name>
None

$$$$

     RDKit          2D

 10 10  0  0  0  0  0  0  0  0999 V2000
    8.4166  -24.1750    0.0000 N   0  0  0  0  0  0  0  0  0  0  0  0
    9.2416  -24.1750    0.0000 N   0  0  0  0  0  0  0  0  0  0  0  0
    9.4984  -23.3909    0.0000 C   0  0  0  0  0  0  0  0  0  0  0  0
    8.8291  -22.9042    0.0000 C   0  0  0  0  0  0  0  0  0  0  0  0
    8.1641  -23.3909    0.0000 C   0  0  0  0  0  0  0  0  0  0  0  0
   10.2868  -23.1351    0.0000 C   0  0  0  0  0  0  0  0  0  0  0  0
   10.8991  -23.6880    0.0000 O   0  0  0  0  0  0  0  0  0  0  0  0
   10.4595  -22.3284    0.0000 O   0  0  0  0  0  0  0  0  0  0  0  0
    7.3794  -23.1363    0.0000 C   0  0  0  0  0  0  0  0  0  0  0  0
    6.7665  -23.6886    0.0000 O   0  0  0  0  0  0  0  0  0  0  0  0
  5  1  2  0
  1  2  1  0
  2  3  1  0
  6  7  1  0
  6  8  2  0
  3  6  1  0
  3  4  2  0
  5  9  1  0
  4  5  1  0
  9 10  1  0
M  END

> <chembl_id>
CHEMBL246903

> <chembl_pref_name>
None

$$$$

     RDKit          2D

 11 11  0  0  0  0  0  0  0  0999 V2000
   14.8980   -9.0204    0.0000 C   0  0  0  0  0  0  0  0  0  0  0  0
   14.8967   -9.8477    0.0000 C   0  0  0  0  0  0  0  0  0  0  0  0
   15.6116  -10.2606    0.0000 C   0  0  0  0  0  0  0  0  0  0  0  0
   16.3279   -9.8473    0.0000 C   0  0  0  0  0  0  0  0  0  0  0  0
   16.3251   -9.0167    0.0000 C   0  0  0  0  0  0  0  0  0  0  0  0
   15.6098   -8.6077    0.0000 C   0  0  0  0  0  0  0  0  0  0  0  0
   17.0379   -8.6016    0.0000 C   0  0  0  0  0  0  0  0  0  0  0  0
   17.7540   -9.0114    0.0000 C   0  0  0  0  0  0  0  0  0  0  0  0
   18.4669   -8.5962    0.0000 N   0  0  0  0  0  0  0  0  0  0  0  0
   19.1828   -9.0059    0.0000 N   0  0  0  0  0  0  0  0  0  0  0  0
   15.6114  -11.0855    0.0000 C   0  0  0  0  0  0  0  0  0  0  0  0
  1  2  2  0
  2  3  1  0
  3  4  2  0
  4  5  1  0
  5  6  2  0
  6  1  1  0
  5  7  1  0
  7  8  1  0
  8  9  2  0
  9 10  1  0
  3 11  1  0
M  END

> <chembl_id>
CHEMBL2235121

> <chembl_pref_name>
None

$$$$

     RDKit          2D

  9  9  0  0  0  0  0  0  0  0999 V2000
    1.2702   -0.8983    0.0000 O   0  0  0  0  0  0  0  0  0  0  0  0
   -0.1588   -1.7233    0.0000 O   0  0  0  0  0  0  0  0  0  0  0  0
   -0.1588    1.5767    0.0000 O   0  0  0  0  0  0  0  0  0  0  0  0
    0.5557    0.3392    0.0000 N   0  0  0  0  0  0  0  0  0  0  0  0
   -0.8732    0.3392    0.0000 N   0  0  0  0  0  0  0  0  0  0  0  0
    0.5557   -0.4858    0.0000 C   0  0  0  0  0  0  0  0  0  0  0  0
   -0.1588   -0.8983    0.0000 C   0  0  0  0  0  0  0  0  0  0  0  0
   -0.1588    0.7517    0.0000 C   0  0  0  0  0  0  0  0  0  0  0  0
   -0.8732   -0.4858    0.0000 C   0  0  0  0  0  0  0  0  0  0  0  0
  1  6  1  0
  2  7  1  0
  3  8  1  0
  4  6  2  0
  4  8  1  0
  5  8  2  0
  5  9  1  0
  6  7  1  0
  7  9  2  0
M  END

> <chembl_id>
CHEMBL1561505

> <chembl_pref_name>
None

$$$$

     RDKit          2D

  9  9  0  0  0  0  0  0  0  0999 V2000
    2.1654  -11.5438    0.0000 C   0  0  0  0  0  0  0  0  0  0  0  0
    2.1642  -12.3634    0.0000 C   0  0  0  0  0  0  0  0  0  0  0  0
    2.8723  -12.7723    0.0000 N   0  0  0  0  0  0  0  0  0  0  0  0
    3.5819  -12.3629    0.0000 C   0  0  0  0  0  0  0  0  0  0  0  0
    3.5791  -11.5402    0.0000 C   0  0  0  0  0  0  0  0  0  0  0  0
    2.8705  -11.1350    0.0000 C   0  0  0  0  0  0  0  0  0  0  0  0
    4.2853  -11.1290    0.0000 C   0  0  0  0  0  0  0  0  0  0  0  0
    4.9945  -11.5349    0.0000 N   0  0  0  0  0  0  0  0  0  0  0  0
    4.2822  -10.3118    0.0000 O   0  0  0  0  0  0  0  0  0  0  0  0
  1  2  2  0
  2  3  1  0
  3  4  2  0
  4  5  1  0
  5  6  2  0
  6  1  1  0
  5  7  1  0
  7  8  1  0
  7  9  2  0
M  END

> <chembl_id>
CHEMBL1140

> <chembl_pref_name>
NIACINAMIDE

$$$$

     RDKit          2D

 10 10  0  0  0  0  0  0  0  0999 V2000
   10.5917    1.9208    0.0000 N   0  0  0  0  0  0  0  0  0  0  0  0
    9.8792    1.5083    0.0000 C   0  0  0  0  0  0  0  0  0  0  0  0
   11.3042    1.5125    0.0000 O   0  0  0  0  0  0  0  0  0  0  0  0
   10.5917    2.7458    0.0000 O   0  0  0  0  0  0  0  0  0  0  0  0
    9.8792    0.6750    0.0000 C   0  0  0  0  0  0  0  0  0  0  0  0
   10.5917    0.2625    0.0000 F   0  0  0  0  0  0  0  0  0  0  0  0
    9.1625    1.9208    0.0000 C   0  0  0  0  0  0  0  0  0  0  0  0
    9.1625    0.2625    0.0000 C   0  0  0  0  0  0  0  0  0  0  0  0
    8.4500    1.5000    0.0000 C   0  0  0  0  0  0  0  0  0  0  0  0
    8.4500    0.6750    0.0000 C   0  0  0  0  0  0  0  0  0  0  0  0
  2  1  1  0
  3  1  1  0
  4  1  2  0
  5  2  1  0
  6  5  1  0
  7  2  2  0
  8  5  2  0
  9  7  1  0
 10  9  2  0
 10  8  1  0
M  CHG  2   1   1   3  -1
M  END

> <chembl_id>
CHEMBL49252

> <chembl_pref_name>
None

$$$$

     RDKit          2D

 10 10  0  0  0  0  0  0  0  0999 V2000
    4.0912   -4.2211    0.0000 C   0  0  0  0  0  0  0  0  0  0  0  0
    4.0899   -5.0486    0.0000 C   0  0  0  0  0  0  0  0  0  0  0  0
    4.8029   -5.4615    0.0000 C   0  0  0  0  0  0  0  0  0  0  0  0
    5.5222   -5.0482    0.0000 C   0  0  0  0  0  0  0  0  0  0  0  0
    5.5191   -4.2170    0.0000 C   0  0  0  0  0  0  0  0  0  0  0  0
    4.8009   -3.8083    0.0000 C   0  0  0  0  0  0  0  0  0  0  0  0
    6.2314   -3.8010    0.0000 C   0  0  0  0  0  0  0  0  0  0  0  0
    6.9479   -4.2100    0.0000 N   0  0  0  0  0  0  0  0  0  0  0  0
    6.2273   -2.9761    0.0000 O   0  0  0  0  0  0  0  0  0  0  0  0
    4.8015   -6.2865    0.0000 C   0  0  0  0  0  0  0  0  0  0  0  0
  2  3  1  0
  5  6  2  0
  6  1  1  0
  1  2  2  0
  5  7  1  0
  3  4  2  0
  7  8  1  0
  7  9  2  0
  4  5  1  0
  3 10  1  0
M  END

> <chembl_id>
CHEMBL123572

> <chembl_pref_name>
None

$$$$

     RDKit          2D

 11 12  0  0  1  0  0  0  0  0999 V2000
    6.1625   -2.6250    0.0000 N   0  0  0  0  0  0  0  0  0  0  0  0
    4.7375   -1.8000    0.0000 C   0  0  0  0  0  0  0  0  0  0  0  0
    4.7292   -2.6250    0.0000 C   0  0  0  0  0  0  0  0  0  0  0  0
    5.4500   -3.0375    0.0000 C   0  0  0  0  0  0  0  0  0  0  0  0
    5.4500   -1.3792    0.0000 C   0  0  0  0  0  0  0  0  0  0  0  0
    6.1625   -1.8000    0.0000 C   0  0  0  0  0  0  0  0  0  0  0  0
    4.0167   -1.3875    0.0000 C   0  0  0  0  0  0  0  0  0  0  0  0
    4.0167   -3.0375    0.0000 C   0  0  0  0  0  0  0  0  0  0  0  0
    6.8792   -1.3875    0.0000 C   0  0  0  0  0  0  0  0  0  0  0  0
    3.3042   -1.8000    0.0000 C   0  0  0  0  0  0  0  0  0  0  0  0
    3.3042   -2.6250    0.0000 C   0  0  0  0  0  0  0  0  0  0  0  0
  2  5  1  0
  3  4  1  0
  4  1  1  0
  5  6  1  0
  6  1  1  0
  7  2  2  0
  8  3  2  0
  6  9  1  1
 10  7  1  0
 11  8  1  0
  3  2  1  0
 11 10  2  0
M  END

> <chembl_id>
CHEMBL293023

> <chembl_pref_name>
None

$$$$

     RDKit          2D

 10 11  0  0  1  0  0  0  0  0999 V2000
    5.9917   -3.5000    0.0000 C   0  0  0  0  0  0  0  0  0  0  0  0
    6.5417   -2.8792    0.0000 C   0  0  0  0  0  0  0  0  0  0  0  0
    6.7917   -3.6750    0.0000 C   0  0  0  0  0  0  0  0  0  0  0  0
    5.2042   -3.7500    0.0000 C   0  0  0  0  0  0  0  0  0  0  0  0
    4.5417   -3.2667    0.0000 N   0  0  0  0  0  0  0  0  0  0  0  0
    4.1292   -4.5375    0.0000 N   0  0  0  0  0  0  0  0  0  0  0  0
    3.8667   -3.7500    0.0000 C   0  0  0  0  0  0  0  0  0  0  0  0
    4.9417   -4.5375    0.0000 C   0  0  0  0  0  0  0  0  0  0  0  0
    7.4042   -4.2250    0.0000 C   0  0  0  0  0  0  0  0  0  0  0  0
    7.2292   -5.0292    0.0000 N   0  0  0  0  0  0  0  0  0  0  0  0
  2  1  1  0
  3  1  1  0
  1  4  1  6
  5  4  1  0
  6  8  1  0
  7  5  2  0
  8  4  2  0
  3  9  1  1
 10  9  1  0
  3  2  1  0
  7  6  1  0
M  END

> <chembl_id>
CHEMBL302231

> <chembl_pref_name>
None

$$$$

     RDKit          2D

 11 12  0  0  0  0  0  0  0  0999 V2000
   -0.3583   -1.5750    0.0000 C   0  0  0  0  0  0  0  0  0  0  0  0
    0.4167   -0.4917    0.0000 C   0  0  0  0  0  0  0  0  0  0  0  0
    0.9042   -1.1625    0.0000 N   0  0  0  0  0  0  0  0  0  0  0  0
   -0.3625   -0.7417    0.0000 C   0  0  0  0  0  0  0  0  0  0  0  0
    0.4292   -1.8250    0.0000 C   0  0  0  0  0  0  0  0  0  0  0  0
   -1.0625   -1.9875    0.0000 C   0  0  0  0  0  0  0  0  0  0  0  0
    0.6667    0.2958    0.0000 O   0  0  0  0  0  0  0  0  0  0  0  0
   -1.0583   -2.8125    0.0000 N   0  0  0  0  0  0  0  0  0  0  0  0
   -1.0750   -0.3417    0.0000 C   0  0  0  0  0  0  0  0  0  0  0  0
   -1.7875   -0.7542    0.0000 C   0  0  0  0  0  0  0  0  0  0  0  0
   -1.7833   -1.5792    0.0000 C   0  0  0  0  0  0  0  0  0  0  0  0
  2  4  1  0
  3  5  1  0
  4  1  1  0
  5  1  1  0
  6  1  2  0
  7  2  2  0
  8  6  1  0
  9  4  2  0
 10 11  2  0
 11  6  1  0
  2  3  1  0
 10  9  1  0
M  END

> <chembl_id>
CHEMBL169140

> <chembl_pref_name>
None

$$$$

     RDKit          2D

  9  9  0  0  0  0  0  0  0  0999 V2000
    3.0583   -8.6548    0.0000 C   0  0  0  0  0  0  0  0  0  0  0  0
    3.0583   -9.4761    0.0000 C   0  0  0  0  0  0  0  0  0  0  0  0
    3.7677   -9.8806    0.0000 N   0  0  0  0  0  0  0  0  0  0  0  0
    4.4771   -9.4761    0.0000 C   0  0  0  0  0  0  0  0  0  0  0  0
    4.4771   -8.6548    0.0000 C   0  0  0  0  0  0  0  0  0  0  0  0
    3.7677   -8.2379    0.0000 N   0  0  0  0  0  0  0  0  0  0  0  0
    3.7677   -7.4166    0.0000 O   0  0  0  0  0  0  0  0  0  0  0  0
    2.3470   -9.8857    0.0000 O   0  0  0  0  0  0  0  0  0  0  0  0
    5.1901   -8.2442    0.0000 C   0  0  0  0  0  0  0  0  0  0  0  0
  1  2  1  0
  1  6  2  0
  2  3  1  0
  3  4  1  0
  4  5  2  0
  5  6  1  0
  6  7  1  0
  2  8  2  0
  5  9  1  0
M  CHG  2   6   1   7  -1
M  END

> <chembl_id>
CHEMBL4285397

> <chembl_pref_name>
None

$$$$

     RDKit          2D

 11 11  0  0  0  0  0  0  0  0999 V2000
    8.0813  -10.7081    0.0000 C   0  0  0  0  0  0  0  0  0  0  0  0
    7.8320   -9.9278    0.0000 N   0  0  0  0  0  0  0  0  0  0  0  0
    7.0191   -9.9239    0.0000 C   0  0  0  0  0  0  0  0  0  0  0  0
    6.7597  -10.6926    0.0000 C   0  0  0  0  0  0  0  0  0  0  0  0
    7.4181  -11.1814    0.0000 N   0  0  0  0  0  0  0  0  0  0  0  0
    8.8683  -10.9583    0.0000 C   0  0  0  0  0  0  0  0  0  0  0  0
    7.4174  -12.0031    0.0000 C   0  0  0  0  0  0  0  0  0  0  0  0
    6.7060  -12.4139    0.0000 C   0  0  0  0  0  0  0  0  0  0  0  0
    9.0413  -11.7606    0.0000 N   0  0  0  0  0  0  0  0  0  0  0  0
    9.8169  -12.0114    0.0000 O   0  0  0  0  0  0  0  0  0  0  0  0
    5.9927  -12.8150    0.0000 C   0  0  0  0  0  0  0  0  0  0  0  0
  1  2  2  0
  2  3  1  0
  3  4  2  0
  4  5  1  0
  1  5  1  0
  1  6  1  0
  7  8  1  0
  5  7  1  0
  9 10  1  0
  6  9  2  0
  8 11  3  0
M  END

> <chembl_id>
CHEMBL3126008

> <chembl_pref_name>
None

$$$$

     RDKit          2D

 10 10  0  0  0  0  0  0  0  0999 V2000
   -0.4271    1.8944    0.0000 C   0  0  0  0  0  0  0  0  0  0  0  0
   -1.1416    2.3069    0.0000 O   0  0  0  0  0  0  0  0  0  0  0  0
   -0.4271    1.0694    0.0000 C   0  0  0  0  0  0  0  0  0  0  0  0
    0.2873    0.6569    0.0000 C   0  0  0  0  0  0  0  0  0  0  0  0
    0.2873   -0.1681    0.0000 C   0  0  0  0  0  0  0  0  0  0  0  0
    1.0018   -0.5806    0.0000 C   0  0  0  0  0  0  0  0  0  0  0  0
    1.0018   -1.4056    0.0000 C   0  0  0  0  0  0  0  0  0  0  0  0
    0.2873   -1.8181    0.0000 C   0  0  0  0  0  0  0  0  0  0  0  0
   -0.4271   -1.4056    0.0000 C   0  0  0  0  0  0  0  0  0  0  0  0
   -0.4271   -0.5806    0.0000 C   0  0  0  0  0  0  0  0  0  0  0  0
  1  2  2  0
  1  3  1  0
  3  4  1  0
  4  5  1  0
  6  5  2  0
 10  5  1  0
  6  7  1  0
  7  8  2  0
  9  8  1  0
 10  9  2  0
M  END

> <chembl_id>
CHEMBL440161

> <chembl_pref_name>
DIHYDROCINNAMALDEHYDE

$$$$

     RDKit          2D

  9  9  0  0  0  0  0  0  0  0999 V2000
    2.8642   -1.6357    0.0000 S   0  0  0  0  0  0  0  0  0  0  0  0
    1.4178   -1.6357    0.0000 N   0  0  0  0  0  0  0  0  0  0  0  0
    1.4178    0.0000    0.0000 N   0  0  0  0  0  0  0  0  0  0  0  0
    2.1464   -1.2250    0.0000 C   0  0  0  0  0  0  0  0  0  0  0  0
    0.7000   -0.4000    0.0000 C   0  0  0  0  0  0  0  0  0  0  0  0
    2.1464   -0.4000    0.0000 C   0  0  0  0  0  0  0  0  0  0  0  0
    0.7000   -1.2250    0.0000 C   0  0  0  0  0  0  0  0  0  0  0  0
    0.0000    0.0000    0.0000 C   0  0  0  0  0  0  0  0  0  0  0  0
    3.5713   -1.2250    0.0000 C   0  0  0  0  0  0  0  0  0  0  0  0
  1  4  1  0
  1  9  1  0
  2  4  1  0
  2  7  2  0
  3  5  2  0
  3  6  1  0
  4  6  2  0
  5  7  1  0
  5  8  1  0
M  END

> <chembl_id>
CHEMBL3188120

> <chembl_pref_name>
None

$$$$

     RDKit          2D

 10 10  0  0  0  0  0  0  0  0999 V2000
   -1.3039    3.7494    0.0000 C   0  0  0  0  0  0  0  0  0  0  0  0
   -0.0031    3.0008    0.0000 N   0  0  0  0  0  0  0  0  0  0  0  0
   -1.3064    4.9494    0.0000 N   0  0  0  0  0  0  0  0  0  0  0  0
    1.2990   -0.7500    0.0000 N   0  0  0  0  0  0  0  0  0  0  0  0
   -2.3421    3.1476    0.0000 N   0  0  0  0  0  0  0  0  0  0  0  0
    0.0000    1.5000    0.0000 C   0  0  0  0  0  0  0  0  0  0  0  0
    1.2990    0.7500    0.0000 C   0  0  0  0  0  0  0  0  0  0  0  0
    0.0000   -1.5000    0.0000 C   0  0  0  0  0  0  0  0  0  0  0  0
   -1.2990    0.7500    0.0000 C   0  0  0  0  0  0  0  0  0  0  0  0
   -1.2990   -0.7500    0.0000 C   0  0  0  0  0  0  0  0  0  0  0  0
  2  1  1  0
  3  1  2  0
  4  7  2  0
  5  1  1  0
  6  2  1  0
  7  6  1  0
  8 10  2  0
  9  6  2  0
 10  9  1  0
  4  8  1  0
M  END

> <chembl_id>
CHEMBL419966

> <chembl_pref_name>
PYRAXININE

$$$$

     RDKit          2D

  9  9  0  0  0  0  0  0  0  0999 V2000
    3.5504    1.4208    0.0000 O   0  0  0  0  0  0  0  0  0  0  0  0
    2.1214    1.4208    0.0000 O   0  0  0  0  0  0  0  0  0  0  0  0
    2.1214   -1.0542    0.0000 N   0  0  0  0  0  0  0  0  0  0  0  0
    2.8359    0.1833    0.0000 C   0  0  0  0  0  0  0  0  0  0  0  0
    2.8359    1.0083    0.0000 C   0  0  0  0  0  0  0  0  0  0  0  0
    2.1214   -0.2292    0.0000 C   0  0  0  0  0  0  0  0  0  0  0  0
    3.5504   -0.2292    0.0000 C   0  0  0  0  0  0  0  0  0  0  0  0
    3.5504   -1.0542    0.0000 C   0  0  0  0  0  0  0  0  0  0  0  0
    2.8359   -1.4667    0.0000 C   0  0  0  0  0  0  0  0  0  0  0  0
  1  5  2  0
  2  5  1  0
  3  6  2  0
  3  9  1  0
  4  5  1  0
  4  6  1  0
  4  7  2  0
  7  8  1  0
  8  9  2  0
M  END

> <chembl_id>
CHEMBL573

> <chembl_pref_name>
NIACIN

$$$$

     RDKit          2D

  9  9  0  0  1  0  0  0  0  0999 V2000
    1.2990   -0.7500    0.0000 C   0  0  0  0  0  0  0  0  0  0  0  0
    1.2990    0.7500    0.0000 N   0  0  0  0  0  0  0  0  0  0  0  0
    0.0000   -1.5000    0.0000 N   0  0  0  0  0  0  0  0  0  0  0  0
   -1.2990   -0.7500    0.0000 C   0  0  0  0  0  0  0  0  0  0  0  0
    0.0000    1.5000    0.0000 C   0  0  0  0  0  0  0  0  0  0  0  0
   -1.2990    0.7500    0.0000 C   0  0  0  0  0  0  0  0  0  0  0  0
    0.0000    2.7000    0.0000 C   0  0  0  0  0  0  0  0  0  0  0  0
   -2.3383   -1.3500    0.0000 C   0  0  0  0  0  0  0  0  0  0  0  0
    2.3383   -1.3500    0.0000 O   0  0  0  0  0  0  0  0  0  0  0  0
  2  1  2  0
  3  1  1  0
  4  3  2  0
  5  2  1  0
  6  4  1  0
  7  5  1  0
  8  4  1  0
  5  6  2  0
  9  1  1  0
M  END

> <chembl_id>
CHEMBL3706457

> <chembl_pref_name>
None

$$$$

     RDKit          2D

  9  8  0  0  0  0  0  0  0  0999 V2000
    1.8250   -3.4031    0.0000 N   0  0  0  0  0  0  0  0  0  0  0  0
    2.5394   -3.8156    0.0000 C   0  0  0  0  0  0  0  0  0  0  0  0
    2.5394   -4.6406    0.0000 C   0  0  0  0  0  0  0  0  0  0  0  0
    1.8250   -5.0531    0.0000 C   0  0  0  0  0  0  0  0  0  0  0  0
    1.1105   -4.6406    0.0000 C   0  0  0  0  0  0  0  0  0  0  0  0
    1.1105   -3.8156    0.0000 C   0  0  0  0  0  0  0  0  0  0  0  0
    3.2539   -3.4031    0.0000 S   0  0  0  0  0  0  0  0  0  0  0  0
    1.8250   -2.5781    0.0000 O   0  0  0  0  0  0  0  0  0  0  0  0
    3.0816   -2.6757    0.0000 Na  0  0  0  0  0 15  0  0  0  0  0  0
  1  2  1  0
  2  3  1  0
  3  4  2  0
  4  5  1  0
  5  6  2  0
  1  6  1  0
  2  7  2  0
  1  8  1  0
M  CHG  2   8  -1   9   1
M  END

> <chembl_id>
CHEMBL2105351

> <chembl_pref_name>
PYRITHIONE SODIUM

$$$$

     RDKit          2D

  7  7  0  0  0  0  0  0  0  0999 V2000
    8.3942  -10.5028    0.0000 C   0  0  0  0  0  0  0  0  0  0  0  0
    8.3930  -11.3297    0.0000 C   0  0  0  0  0  0  0  0  0  0  0  0
    9.1074  -11.7423    0.0000 C   0  0  0  0  0  0  0  0  0  0  0  0
    9.8235  -11.3292    0.0000 C   0  0  0  0  0  0  0  0  0  0  0  0
    9.8206  -10.4992    0.0000 N   0  0  0  0  0  0  0  0  0  0  0  0
    9.1056  -10.0902    0.0000 C   0  0  0  0  0  0  0  0  0  0  0  0
   10.5382  -11.7404    0.0000 F   0  0  0  0  0  0  0  0  0  0  0  0
  3  4  2  0
  4  5  1  0
  2  3  1  0
  5  6  2  0
  6  1  1  0
  1  2  2  0
  4  7  1  0
M  END

> <chembl_id>
CHEMBL1162360

> <chembl_pref_name>
None

$$$$

     RDKit          2D

 11 11  0  0  0  0  0  0  0  0999 V2000
    0.9875   -1.4292    0.0000 N   0  0  0  0  0  0  0  0  0  0  0  0
    1.5042   -1.7292    0.0000 C   0  0  0  0  0  0  0  0  0  0  0  0
    4.0917   -2.0250    0.0000 N   0  0  0  0  0  0  0  0  0  0  0  0
    2.0250   -2.0292    0.0000 C   0  0  0  0  0  0  0  0  0  0  0  0
    2.5417   -1.7292    0.0000 C   0  0  0  0  0  0  0  0  0  0  0  0
    3.0542   -2.0292    0.0000 C   0  0  0  0  0  0  0  0  0  0  0  0
    3.5750   -1.7292    0.0000 C   0  0  0  0  0  0  0  0  0  0  0  0
    2.5417   -2.9292    0.0000 C   0  0  0  0  0  0  0  0  0  0  0  0
    4.8667   -1.6792    0.0000 C   0  0  0  0  0  0  0  0  0  0  0  0
    2.0250   -2.6292    0.0000 C   0  0  0  0  0  0  0  0  0  0  0  0
    3.0542   -2.6292    0.0000 C   0  0  0  0  0  0  0  0  0  0  0  0
  2  1  3  0
  3  7  1  0
  4  2  1  0
  5  4  1  0
  6  5  2  0
  7  6  1  0
  8 10  1  0
  9  3  1  0
 10  4  2  0
 11  8  2  0
 11  6  1  0
M  END

> <chembl_id>
CHEMBL1178171

> <chembl_pref_name>
None

$$$$

     RDKit          2D

  8  8  0  0  0  0  0  0  0  0999 V2000
   24.0594   -3.7589    0.0000 N   0  0  0  0  0  0  0  0  0  0  0  0
   24.7668   -3.3479    0.0000 C   0  0  0  0  0  0  0  0  0  0  0  0
   25.4848   -3.7699    0.0000 N   0  0  0  0  0  0  0  0  0  0  0  0
   24.0584   -4.5847    0.0000 C   0  0  0  0  0  0  0  0  0  0  0  0
   23.3435   -3.3504    0.0000 C   0  0  0  0  0  0  0  0  0  0  0  0
   23.3441   -2.5245    0.0000 C   0  0  0  0  0  0  0  0  0  0  0  0
   24.0558   -2.1098    0.0000 C   0  0  0  0  0  0  0  0  0  0  0  0
   24.7660   -2.5210    0.0000 C   0  0  0  0  0  0  0  0  0  0  0  0
  1  2  1  0
  2  3  2  0
  1  4  1  0
  1  5  1  0
  5  6  2  0
  6  7  1  0
  7  8  2  0
  8  2  1  0
M  END

> <chembl_id>
CHEMBL3303310

> <chembl_pref_name>
None

$$$$

     RDKit          2D

 11 11  0  0  0  0  0  0  0  0999 V2000
    3.5514   -9.1740    0.0000 C   0  0  0  0  0  0  0  0  0  0  0  0
    0.7013   -8.3547    0.0000 C   0  0  0  0  0  0  0  0  0  0  0  0
    0.7013   -9.1805    0.0000 C   0  0  0  0  0  0  0  0  0  0  0  0
    1.4137   -9.5925    0.0000 C   0  0  0  0  0  0  0  0  0  0  0  0
    2.1287   -9.1800    0.0000 C   0  0  0  0  0  0  0  0  0  0  0  0
    2.1287   -8.3511    0.0000 C   0  0  0  0  0  0  0  0  0  0  0  0
    1.4119   -7.9427    0.0000 C   0  0  0  0  0  0  0  0  0  0  0  0
    2.8425   -9.5906    0.0000 N   0  0  0  0  0  0  0  0  0  0  0  0
    4.2687   -9.5883    0.0000 C   0  0  0  0  0  0  0  0  0  0  0  0
    4.9811   -9.1755    0.0000 C   0  0  0  0  0  0  0  0  0  0  0  0
    3.5514   -8.3506    0.0000 O   0  0  0  0  0  0  0  0  0  0  0  0
  2  3  2  0
  3  4  1  0
  4  5  2  0
  5  6  1  0
  6  7  2  0
  7  2  1  0
  5  8  1  0
  8  1  1  0
  1  9  1  0
  9 10  2  0
  1 11  2  0
M  END

> <chembl_id>
CHEMBL2086477

> <chembl_pref_name>
None

$$$$

     RDKit          2D

 10 10  0  0  0  0  0  0  0  0999 V2000
    8.2750  -22.8288    0.0000 N   0  0  0  0  0  0  0  0  0  0  0  0
    7.8625  -23.5405    0.0000 C   0  0  0  0  0  0  0  0  0  0  0  0
    7.0375  -23.5405    0.0000 C   0  0  0  0  0  0  0  0  0  0  0  0
    6.6250  -24.2563    0.0000 C   0  0  0  0  0  0  0  0  0  0  0  0
    5.8000  -24.2563    0.0000 C   0  0  0  0  0  0  0  0  0  0  0  0
    5.3875  -23.5405    0.0000 C   0  0  0  0  0  0  0  0  0  0  0  0
    5.8000  -22.8288    0.0000 C   0  0  0  0  0  0  0  0  0  0  0  0
    6.6250  -22.8288    0.0000 C   0  0  0  0  0  0  0  0  0  0  0  0
    4.5625  -23.5405    0.0000 C   0  0  0  0  0  0  0  0  0  0  0  0
    4.1500  -24.2563    0.0000 N   0  0  0  0  0  0  0  0  0  0  0  0
  2  3  1  0
  3  4  1  0
  4  5  2  0
  5  6  1  0
  6  7  2  0
  7  8  1  0
  3  8  2  0
  1  2  1  0
  9 10  1  0
  6  9  1  0
M  END

> <chembl_id>
CHEMBL218733

> <chembl_pref_name>
None

$$$$

     RDKit          2D

  8  8  0  0  0  0  0  0  0  0999 V2000
   -1.5333    1.7083    0.0000 C   0  0  0  0  0  0  0  0  0  0  0  0
   -2.3208    1.4500    0.0000 C   0  0  0  0  0  0  0  0  0  0  0  0
   -2.3208    0.6250    0.0000 N   0  0  0  0  0  0  0  0  0  0  0  0
   -1.0500    1.0375    0.0000 C   0  0  0  0  0  0  0  0  0  0  0  0
   -1.5333    0.3708    0.0000 S   0  0  0  0  0  0  0  0  0  0  0  0
   -2.9875    1.9375    0.0000 O   0  0  0  0  0  0  0  0  0  0  0  0
   -0.2250    1.0375    0.0000 Cl  0  0  0  0  0  0  0  0  0  0  0  0
   -2.9875    0.1458    0.0000 C   0  0  0  0  0  0  0  0  0  0  0  0
  2  1  1  0
  3  2  1  0
  4  1  2  0
  5  4  1  0
  6  2  2  0
  7  4  1  0
  8  3  1  0
  3  5  1  0
M  END

> <chembl_id>
CHEMBL1738962

> <chembl_pref_name>
None

$$$$

     RDKit          2D

  9  9  0  0  0  0  0  0  0  0999 V2000
   -1.4148   -2.5438    0.0000 S   0  0  0  0  0  0  0  0  0  0  0  0
   -0.6772   -1.0763    0.0000 O   0  0  0  0  0  0  0  0  0  0  0  0
    0.7517   -1.0763    0.0000 O   0  0  0  0  0  0  0  0  0  0  0  0
    0.7047   -2.7987    0.0000 N   0  0  0  0  0  0  0  0  0  0  0  0
   -0.3752   -3.5833    0.0000 N   0  0  0  0  0  0  0  0  0  0  0  0
    0.4498   -3.5833    0.0000 N   0  0  0  0  0  0  0  0  0  0  0  0
    0.0373   -2.3138    0.0000 C   0  0  0  0  0  0  0  0  0  0  0  0
   -0.6302   -2.7987    0.0000 C   0  0  0  0  0  0  0  0  0  0  0  0
    0.0373   -1.4888    0.0000 C   0  0  0  0  0  0  0  0  0  0  0  0
  1  8  1  0
  2  9  2  0
  3  9  1  0
  4  6  2  0
  4  7  1  0
  5  6  1  0
  5  8  1  0
  7  8  2  0
  7  9  1  0
M  END

> <chembl_id>
CHEMBL1979235

> <chembl_pref_name>
None

$$$$

     RDKit          2D

 10 11  0  0  1  0  0  0  0  0999 V2000
    0.7166   -0.6247    0.0000 N   0  0  0  0  0  0  0  0  0  0  0  0
    0.7166   -2.2661    0.0000 N   0  0  0  0  0  0  0  0  0  0  0  0
    1.4305   -1.0330    0.0000 C   0  0  0  0  0  0  0  0  0  0  0  0
    1.4305   -1.8577    0.0000 C   0  0  0  0  0  0  0  0  0  0  0  0
    2.2174   -0.7842    0.0000 C   0  0  0  0  0  0  0  0  0  0  0  0
    2.2174   -2.1174    0.0000 C   0  0  0  0  0  0  0  0  0  0  0  0
    2.7042   -1.4521    0.0000 C   0  0  0  0  0  0  0  0  0  0  0  0
    0.0000   -1.0330    0.0000 C   0  0  0  0  0  0  0  0  0  0  0  0
    0.0000   -1.8577    0.0000 C   0  0  0  0  0  0  0  0  0  0  0  0
    2.4743    0.0000    0.0000 C   0  0  0  0  0  0  0  0  0  0  0  0
  1  3  1  0
  1  8  2  0
  2  4  1  0
  2  9  2  0
  3  4  2  0
  3  5  1  0
  4  6  1  0
  5  7  1  0
  5 10  1  0
  6  7  1  0
  8  9  1  0
M  END

> <chembl_id>
CHEMBL3188160

> <chembl_pref_name>
None

$$$$

     RDKit          2D

  9  8  0  0  0  0  0  0  0  0999 V2000
    3.3001   -0.7161    0.0000 N   0  0  0  0  0  0  0  0  0  0  0  0
    2.4750   -0.7161    0.0000 C   0  0  0  0  0  0  0  0  0  0  0  0
    0.8250   -0.7161    0.0000 C   0  0  0  0  0  0  0  0  0  0  0  0
    2.0625    0.0000    0.0000 C   0  0  0  0  0  0  0  0  0  0  0  0
    2.0625   -1.4289    0.0000 C   0  0  0  0  0  0  0  0  0  0  0  0
    1.2375    0.0000    0.0000 C   0  0  0  0  0  0  0  0  0  0  0  0
    1.2375   -1.4289    0.0000 C   0  0  0  0  0  0  0  0  0  0  0  0
    0.0000   -0.7161    0.0000 C   0  0  0  0  0  0  0  0  0  0  0  0
    1.6500   -1.9272    0.0000 Cl  0  0  0  0  0  0  0  0  0  0  0  0
  1  2  1  0
  2  4  2  0
  2  5  1  0
  3  6  2  0
  3  7  1  0
  3  8  1  0
  4  6  1  0
  5  7  2  0
M  END

> <chembl_id>
CHEMBL3183830

> <chembl_pref_name>
None

$$$$

     RDKit          2D

 10 10  0  0  0  0  0  0  0  0999 V2000
   -2.5559    0.4950    0.0000 O   0  0  0  0  0  0  0  0  0  0  0  0
   -1.8414   -0.7425    0.0000 N   0  0  0  0  0  0  0  0  0  0  0  0
   -2.5559   -1.9800    0.0000 N   0  0  0  0  0  0  0  0  0  0  0  0
   -1.1270   -1.9800    0.0000 N   0  0  0  0  0  0  0  0  0  0  0  0
   -3.9849   -1.9800    0.0000 N   0  0  0  0  0  0  0  0  0  0  0  0
   -1.8414   -1.5675    0.0000 C   0  0  0  0  0  0  0  0  0  0  0  0
   -2.5559   -0.3300    0.0000 C   0  0  0  0  0  0  0  0  0  0  0  0
   -3.2704   -1.5675    0.0000 C   0  0  0  0  0  0  0  0  0  0  0  0
   -3.2704   -0.7425    0.0000 C   0  0  0  0  0  0  0  0  0  0  0  0
   -0.4125   -1.5675    0.0000 C   0  0  0  0  0  0  0  0  0  0  0  0
  1  7  1  0
  2  6  2  0
  2  7  1  0
  3  6  1  0
  3  8  2  0
  4  6  1  0
  4 10  1  0
  5  8  1  0
  7  9  2  0
  8  9  1  0
M  END

> <chembl_id>
CHEMBL1989906

> <chembl_pref_name>
None

$$$$

     RDKit          2D

  9  9  0  0  0  0  0  0  0  0999 V2000
    0.7500   -1.0323    0.0000 N   0  0  0  0  0  0  0  0  0  0  0  0
    0.0000    1.2760    0.0000 N   0  0  0  0  0  0  0  0  0  0  0  0
    1.2135    0.3943    0.0000 C   0  0  0  0  0  0  0  0  0  0  0  0
   -0.7500   -1.0323    0.0000 C   0  0  0  0  0  0  0  0  0  0  0  0
   -1.2135    0.3943    0.0000 C   0  0  0  0  0  0  0  0  0  0  0  0
   -5.2035   -3.1688    0.0000 O   0  0  0  0  0  0  0  0  0  0  0  0
   -1.6332   -2.2426    0.0000 C   0  0  0  0  0  0  0  0  0  0  0  0
   -4.0102   -3.2959    0.0000 C   0  0  0  0  0  0  0  0  0  0  0  0
   -3.1255   -2.0835    0.0000 C   0  0  0  0  0  0  0  0  0  0  0  0
  1  3  2  0
  2  3  1  0
  1  4  1  0
  2  5  1  0
  4  5  2  0
  4  7  1  0
  6  8  1  0
  7  9  1  0
  8  9  1  0
M  END

> <chembl_id>
CHEMBL1195926

> <chembl_pref_name>
None

$$$$

     RDKit          2D

 10 11  0  0  0  0  0  0  0  0999 V2000
    5.0042   -5.2375    0.0000 C   0  0  0  0  0  0  0  0  0  0  0  0
    5.8375   -5.2375    0.0000 C   0  0  0  0  0  0  0  0  0  0  0  0
    6.0917   -4.4417    0.0000 N   0  0  0  0  0  0  0  0  0  0  0  0
    4.7542   -4.4417    0.0000 C   0  0  0  0  0  0  0  0  0  0  0  0
    5.4250   -3.9625    0.0000 O   0  0  0  0  0  0  0  0  0  0  0  0
    4.4542   -5.8500    0.0000 N   0  0  0  0  0  0  0  0  0  0  0  0
    6.3167   -5.9042    0.0000 O   0  0  0  0  0  0  0  0  0  0  0  0
    3.9500   -4.2792    0.0000 C   0  0  0  0  0  0  0  0  0  0  0  0
    3.6500   -5.6750    0.0000 C   0  0  0  0  0  0  0  0  0  0  0  0
    3.3917   -4.8875    0.0000 C   0  0  0  0  0  0  0  0  0  0  0  0
  2  1  1  0
  3  2  2  0
  4  1  2  0
  5  4  1  0
  6  1  1  0
  7  2  1  0
  8  4  1  0
  9  6  1  0
 10  9  1  0
  3  5  1  0
  8 10  1  0
M  END

> <chembl_id>
CHEMBL63828

> <chembl_pref_name>
None

$$$$

     RDKit          2D

 10 10  0  0  0  0  0  0  0  0999 V2000
   -1.6541   -3.7140    0.0000 O   0  0  0  0  0  0  0  0  0  0  0  0
    1.0785   -3.4169    0.0000 N   0  0  0  0  0  0  0  0  0  0  0  0
    0.8235   -4.2015    0.0000 N   0  0  0  0  0  0  0  0  0  0  0  0
    0.4110   -2.1070    0.0000 N   0  0  0  0  0  0  0  0  0  0  0  0
   -1.2126   -2.3550    0.0000 N   0  0  0  0  0  0  0  0  0  0  0  0
   -0.2564   -3.4169    0.0000 C   0  0  0  0  0  0  0  0  0  0  0  0
    0.4110   -2.9320    0.0000 C   0  0  0  0  0  0  0  0  0  0  0  0
   -0.0015   -4.2015    0.0000 C   0  0  0  0  0  0  0  0  0  0  0  0
   -1.0410   -3.1620    0.0000 C   0  0  0  0  0  0  0  0  0  0  0  0
   -0.4864   -4.8690    0.0000 C   0  0  0  0  0  0  0  0  0  0  0  0
  1  9  2  0
  2  3  1  0
  2  7  1  0
  3  8  2  0
  4  7  1  0
  5  9  1  0
  6  7  2  0
  6  8  1  0
  6  9  1  0
  8 10  1  0
M  END

> <chembl_id>
CHEMBL1996982

> <chembl_pref_name>
None

$$$$

     RDKit          2D

 10 10  0  0  0  0  0  0  0  0999 V2000
    6.5417   -3.6292    0.0000 C   0  0  0  0  0  0  0  0  0  0  0  0
    6.5417   -4.4542    0.0000 C   0  0  0  0  0  0  0  0  0  0  0  0
    5.8292   -3.2125    0.0000 C   0  0  0  0  0  0  0  0  0  0  0  0
    5.1167   -3.6292    0.0000 C   0  0  0  0  0  0  0  0  0  0  0  0
    5.8292   -4.8667    0.0000 O   0  0  0  0  0  0  0  0  0  0  0  0
    5.1167   -4.4542    0.0000 C   0  0  0  0  0  0  0  0  0  0  0  0
    7.2625   -4.8667    0.0000 O   0  0  0  0  0  0  0  0  0  0  0  0
    5.8292   -2.3875    0.0000 O   0  0  0  0  0  0  0  0  0  0  0  0
    7.2625   -3.2167    0.0000 C   0  0  0  0  0  0  0  0  0  0  0  0
    4.4042   -4.8667    0.0000 C   0  0  0  0  0  0  0  0  0  0  0  0
  2  1  1  0
  3  1  2  0
  4  3  1  0
  5  2  1  0
  6  4  2  0
  7  2  2  0
  8  3  1  0
  9  1  1  0
 10  6  1  0
  5  6  1  0
M  END

> <chembl_id>
CHEMBL51918

> <chembl_pref_name>
None

$$$$

     RDKit          2D

  9  9  0  0  0  0  0  0  0  0999 V2000
    2.5597   -1.9305    0.0000 N   0  0  0  0  0  0  0  0  0  0  0  0
    2.9761   -0.6672    0.0000 N   0  0  0  0  0  0  0  0  0  0  0  0
    3.2269   -1.4526    0.0000 C   0  0  0  0  0  0  0  0  0  0  0  0
    1.8926   -1.4431    0.0000 C   0  0  0  0  0  0  0  0  0  0  0  0
    2.1528   -0.6672    0.0000 C   0  0  0  0  0  0  0  0  0  0  0  0
    2.5597   -2.7585    0.0000 C   0  0  0  0  0  0  0  0  0  0  0  0
    4.0123   -1.7034    0.0000 C   0  0  0  0  0  0  0  0  0  0  0  0
    3.4587    0.0000    0.0000 C   0  0  0  0  0  0  0  0  0  0  0  0
    3.2789   -3.1796    0.0000 C   0  0  0  0  0  0  0  0  0  0  0  0
  1  3  1  0
  1  4  1  0
  1  6  1  0
  2  3  2  0
  2  5  1  0
  2  8  1  0
  3  7  1  0
  4  5  2  0
  6  9  1  0
M  CHG  1   2   1
M  END

> <chembl_id>
CHEMBL3305967

> <chembl_pref_name>
None

$$$$

     RDKit          2D

 10 10  0  0  0  0  0  0  0  0999 V2000
    6.1028   -4.0240    0.0000 C   0  0  0  0  0  0  0  0  0  0  0  0
    6.1016   -4.8435    0.0000 C   0  0  0  0  0  0  0  0  0  0  0  0
    6.8097   -5.2525    0.0000 C   0  0  0  0  0  0  0  0  0  0  0  0
    7.5193   -4.8431    0.0000 C   0  0  0  0  0  0  0  0  0  0  0  0
    7.5165   -4.0204    0.0000 C   0  0  0  0  0  0  0  0  0  0  0  0
    6.8079   -3.6151    0.0000 C   0  0  0  0  0  0  0  0  0  0  0  0
    6.8054   -2.7980    0.0000 N   0  0  0  0  0  0  0  0  0  0  0  0
    7.5119   -2.3873    0.0000 N   0  0  0  0  0  0  0  0  0  0  0  0
    6.8095   -6.0697    0.0000 O   0  0  0  0  0  0  0  0  0  0  0  0
    6.1016   -6.4781    0.0000 C   0  0  0  0  0  0  0  0  0  0  0  0
  1  2  2  0
  2  3  1  0
  3  4  2  0
  4  5  1  0
  5  6  2  0
  6  1  1  0
  6  7  1  0
  7  8  1  0
  3  9  1  0
  9 10  1  0
M  END


> <chembl_id>
CHEMBL4302998

> <chembl_pref_name>
None

$$$$

     RDKit          2D

  7  7  0  0  0  0  0  0  0  0999 V2000
   15.4461  -16.8067    0.0000 C   0  0  0  0  0  0  0  0  0  0  0  0
   15.4449  -17.6329    0.0000 C   0  0  0  0  0  0  0  0  0  0  0  0
   16.1567  -18.0452    0.0000 N   0  0  0  0  0  0  0  0  0  0  0  0
   16.8749  -17.6324    0.0000 C   0  0  0  0  0  0  0  0  0  0  0  0
   16.8717  -16.8027    0.0000 C   0  0  0  0  0  0  0  0  0  0  0  0
   16.1547  -16.3946    0.0000 C   0  0  0  0  0  0  0  0  0  0  0  0
   16.1508  -15.5710    0.0000 O   0  0  0  0  0  0  0  0  0  0  0  0
  3  4  2  0
  4  5  1  0
  2  3  1  0
  5  6  2  0
  6  1  1  0
  1  2  2  0
  6  7  1  0
M  END

> <chembl_id>
CHEMBL237459

> <chembl_pref_name>
None

$$$$

     RDKit          2D

 10 10  0  0  0  0  0  0  0  0999 V2000
    0.7149   -0.8236    0.0000 O   0  0  0  0  0  0  0  0  0  0  0  0
    2.1415   -3.2946    0.0000 N   0  0  0  0  0  0  0  0  0  0  0  0
    1.4265   -1.2354    0.0000 C   0  0  0  0  0  0  0  0  0  0  0  0
    2.1415   -0.8236    0.0000 C   0  0  0  0  0  0  0  0  0  0  0  0
    2.1415   -2.4709    0.0000 C   0  0  0  0  0  0  0  0  0  0  0  0
    1.4265   -2.0591    0.0000 C   0  0  0  0  0  0  0  0  0  0  0  0
    2.8564   -1.2354    0.0000 C   0  0  0  0  0  0  0  0  0  0  0  0
    2.8564   -2.0591    0.0000 C   0  0  0  0  0  0  0  0  0  0  0  0
    2.1415    0.0000    0.0000 C   0  0  0  0  0  0  0  0  0  0  0  0
    0.0000   -1.2354    0.0000 C   0  0  0  0  0  0  0  0  0  0  0  0
  1  3  1  0
  1 10  1  0
  2  5  1  0
  3  4  1  0
  3  6  2  0
  4  7  2  0
  4  9  1  0
  5  6  1  0
  5  8  2  0
  7  8  1  0
M  END

> <chembl_id>
CHEMBL3188424

> <chembl_pref_name>
None

$$$$

     RDKit          2D

 10 11  0  0  0  0  0  0  0  0999 V2000
    0.7330    0.0000    0.0000 N   0  0  0  0  0  0  0  0  0  0  0  0
    0.7330   -1.6673    0.0000 N   0  0  0  0  0  0  0  0  0  0  0  0
    1.4574   -1.2447    0.0000 C   0  0  0  0  0  0  0  0  0  0  0  0
    1.4574   -0.4197    0.0000 C   0  0  0  0  0  0  0  0  0  0  0  0
    2.1617    0.0000    0.0000 C   0  0  0  0  0  0  0  0  0  0  0  0
    2.1617   -1.6673    0.0000 C   0  0  0  0  0  0  0  0  0  0  0  0
    0.0000   -0.4197    0.0000 C   0  0  0  0  0  0  0  0  0  0  0  0
    0.0000   -1.2447    0.0000 C   0  0  0  0  0  0  0  0  0  0  0  0
    2.8747   -1.2447    0.0000 C   0  0  0  0  0  0  0  0  0  0  0  0
    2.8747   -0.4197    0.0000 C   0  0  0  0  0  0  0  0  0  0  0  0
  1  4  2  0
  1  7  1  0
  2  3  2  0
  2  8  1  0
  3  4  1  0
  3  6  1  0
  4  5  1  0
  5 10  1  0
  6  9  1  0
  7  8  2  0
  9 10  1  0
M  END

> <chembl_id>
CHEMBL3182352

> <chembl_pref_name>
None

$$$$

     RDKit          2D

 11 12  0  0  0  0  0  0  0  0999 V2000
    9.9019    2.0214    0.0000 C   0  0  0  0  0  0  0  0  0  0  0  0
    9.9007    1.1956    0.0000 C   0  0  0  0  0  0  0  0  0  0  0  0
   10.6144    0.7834    0.0000 C   0  0  0  0  0  0  0  0  0  0  0  0
   10.6126    2.4335    0.0000 C   0  0  0  0  0  0  0  0  0  0  0  0
   11.3266    2.0251    0.0000 C   0  0  0  0  0  0  0  0  0  0  0  0
   11.3269    1.2001    0.0000 C   0  0  0  0  0  0  0  0  0  0  0  0
   12.1116    0.9454    0.0000 C   0  0  0  0  0  0  0  0  0  0  0  0
   12.5964    1.6131    0.0000 C   0  0  0  0  0  0  0  0  0  0  0  0
   12.1112    2.2802    0.0000 C   0  0  0  0  0  0  0  0  0  0  0  0
   13.4199    1.6134    0.0000 O   0  0  0  0  0  0  0  0  0  0  0  0
   12.3664    0.1622    0.0000 N   0  0  0  0  0  0  0  0  0  0  0  0
  2  3  1  0
  3  6  2  0
  6  7  1  0
  7  8  1  0
  8  9  1  0
  9  5  1  0
  5  4  2  0
  8 10  2  0
  4  1  1  0
  7 11  1  0
  5  6  1  0
  1  2  2  0
M  END

> <chembl_id>
CHEMBL1739275

> <chembl_pref_name>
None

$$$$

     RDKit          2D

 11 12  0  0  0  0  0  0  0  0999 V2000
   -4.4409    1.8263    0.0000 C   0  0  0  0  0  0  0  0  0  0  0  0
   -4.4421    1.0041    0.0000 C   0  0  0  0  0  0  0  0  0  0  0  0
   -3.7315    0.5937    0.0000 C   0  0  0  0  0  0  0  0  0  0  0  0
   -3.7333    2.2366    0.0000 C   0  0  0  0  0  0  0  0  0  0  0  0
   -3.0175    1.0069    0.0000 C   0  0  0  0  0  0  0  0  0  0  0  0
   -3.0224    1.8300    0.0000 C   0  0  0  0  0  0  0  0  0  0  0  0
   -2.3792    2.3527    0.0000 C   0  0  0  0  0  0  0  0  0  0  0  0
   -2.3653    0.4956    0.0000 C   0  0  0  0  0  0  0  0  0  0  0  0
   -1.5720    2.1795    0.0000 C   0  0  0  0  0  0  0  0  0  0  0  0
   -1.5595    0.6874    0.0000 C   0  0  0  0  0  0  0  0  0  0  0  0
   -1.2094    1.4376    0.0000 N   0  0  0  0  0  0  0  0  0  0  0  0
  2  3  1  0
  5  6  1  0
  3  5  2  0
  6  7  1  0
  1  2  2  0
  5  8  1  0
  6  4  2  0
  7  9  1  0
  4  1  1  0
  8 10  1  0
  9 11  1  0
 10 11  1  0
M  END

> <chembl_id>
CHEMBL253155

> <chembl_pref_name>
None

$$$$

     RDKit          2D

 10 10  0  0  0  0  0  0  0  0999 V2000
    3.3051   -1.4217    0.0000 O   0  0  0  0  0  0  0  0  0  0  0  0
    2.4788    0.0000    0.0000 N   0  0  0  0  0  0  0  0  0  0  0  0
    0.0000   -1.4217    0.0000 N   0  0  0  0  0  0  0  0  0  0  0  0
    2.4788   -1.4217    0.0000 C   0  0  0  0  0  0  0  0  0  0  0  0
    2.0680   -0.7155    0.0000 C   0  0  0  0  0  0  0  0  0  0  0  0
    0.8355   -1.4217    0.0000 C   0  0  0  0  0  0  0  0  0  0  0  0
    1.2417   -0.7155    0.0000 C   0  0  0  0  0  0  0  0  0  0  0  0
    2.0680   -2.1372    0.0000 C   0  0  0  0  0  0  0  0  0  0  0  0
    1.2417   -2.1372    0.0000 C   0  0  0  0  0  0  0  0  0  0  0  0
    3.7205   -2.1372    0.0000 C   0  0  0  0  0  0  0  0  0  0  0  0
  1  4  1  0
  1 10  1  0
  2  5  1  0
  3  6  1  0
  4  5  2  0
  4  8  1  0
  5  7  1  0
  6  7  2  0
  6  9  1  0
  8  9  2  0
M  END

> <chembl_id>
CHEMBL3302060

> <chembl_pref_name>
None

$$$$

     RDKit          2D

 10 10  0  0  0  0  0  0  0  0999 V2000
    0.0000   -0.7162    0.0000 N   0  0  0  0  0  0  0  0  0  0  0  0
    2.4705   -0.7162    0.0000 C   0  0  0  0  0  0  0  0  0  0  0  0
    0.8250   -0.7162    0.0000 C   0  0  0  0  0  0  0  0  0  0  0  0
    2.0626    0.0000    0.0000 C   0  0  0  0  0  0  0  0  0  0  0  0
    2.0626   -1.4234    0.0000 C   0  0  0  0  0  0  0  0  0  0  0  0
    1.2376    0.0000    0.0000 C   0  0  0  0  0  0  0  0  0  0  0  0
    1.2376   -1.4234    0.0000 C   0  0  0  0  0  0  0  0  0  0  0  0
    3.2956   -0.7162    0.0000 C   0  0  0  0  0  0  0  0  0  0  0  0
    3.7081    0.0000    0.0000 C   0  0  0  0  0  0  0  0  0  0  0  0
    4.5331    0.0000    0.0000 C   0  0  0  0  0  0  0  0  0  0  0  0
  1  3  1  0
  2  4  2  0
  2  5  1  0
  2  8  1  0
  3  6  2  0
  3  7  1  0
  4  6  1  0
  5  7  2  0
  8  9  1  0
  9 10  1  0
M  END

> <chembl_id>
CHEMBL3187279

> <chembl_pref_name>
None

$$$$

     RDKit          2D

 10 10  0  0  0  0  0  0  0  0999 V2000
    5.5292  -17.2667    0.0000 C   0  0  0  0  0  0  0  0  0  0  0  0
    5.5375  -18.0917    0.0000 C   0  0  0  0  0  0  0  0  0  0  0  0
    6.2500  -16.8542    0.0000 F   0  0  0  0  0  0  0  0  0  0  0  0
    4.8167  -16.8625    0.0000 F   0  0  0  0  0  0  0  0  0  0  0  0
    6.3292  -17.4792    0.0000 F   0  0  0  0  0  0  0  0  0  0  0  0
    6.2542  -18.5042    0.0000 C   0  0  0  0  0  0  0  0  0  0  0  0
    4.8250  -18.5125    0.0000 C   0  0  0  0  0  0  0  0  0  0  0  0
    4.8250  -19.3375    0.0000 C   0  0  0  0  0  0  0  0  0  0  0  0
    6.2542  -19.3375    0.0000 C   0  0  0  0  0  0  0  0  0  0  0  0
    5.5375  -19.7500    0.0000 C   0  0  0  0  0  0  0  0  0  0  0  0
  2  1  1  0
  3  1  1  0
  4  1  1  0
  5  1  1  0
  6  2  2  0
  7  2  1  0
  8  7  2  0
  9  6  1  0
 10  8  1  0
 10  9  2  0
M  END

> <chembl_id>
CHEMBL15897

> <chembl_pref_name>
TRIFLUOROMETHYLBENZENE

$$$$

     RDKit          2D

 11 12  0  0  0  0  0  0  0  0999 V2000
    8.7034   -9.0498    0.0000 C   0  0  0  0  0  0  0  0  0  0  0  0
    8.7023   -9.8748    0.0000 C   0  0  0  0  0  0  0  0  0  0  0  0
    9.4151  -10.2865    0.0000 N   0  0  0  0  0  0  0  0  0  0  0  0
    9.4133   -8.6381    0.0000 C   0  0  0  0  0  0  0  0  0  0  0  0
   10.1268   -9.0461    0.0000 C   0  0  0  0  0  0  0  0  0  0  0  0
   10.1256   -9.8723    0.0000 C   0  0  0  0  0  0  0  0  0  0  0  0
   10.8366  -10.2841    0.0000 C   0  0  0  0  0  0  0  0  0  0  0  0
   11.5532   -9.8743    0.0000 C   0  0  0  0  0  0  0  0  0  0  0  0
   11.5544   -9.0481    0.0000 C   0  0  0  0  0  0  0  0  0  0  0  0
   10.8389   -8.6317    0.0000 C   0  0  0  0  0  0  0  0  0  0  0  0
   10.8389   -7.8090    0.0000 N   0  0  0  0  0  0  0  0  0  0  0  0
  1  2  2  0
  2  3  1  0
  3  6  2  0
  5  4  2  0
  5 10  1  0
  6  7  1  0
  7  8  1  0
  8  9  1  0
  9 10  1  0
  4  1  1  0
 10 11  1  0
  5  6  1  0
M  END

> <chembl_id>
CHEMBL1197410

> <chembl_pref_name>
None

$$$$

     RDKit          2D

 11 11  0  0  1  0  0  0  0  0999 V2000
    4.2829   -1.2377    0.0000 O   0  0  0  0  0  0  0  0  0  0  0  0
    1.4348   -1.2377    0.0000 C   0  0  0  0  0  0  0  0  0  0  0  0
    2.1414   -0.8266    0.0000 C   0  0  0  0  0  0  0  0  0  0  0  0
    0.7153   -0.8266    0.0000 C   0  0  0  0  0  0  0  0  0  0  0  0
    1.4348   -2.0515    0.0000 C   0  0  0  0  0  0  0  0  0  0  0  0
    2.8481   -1.2377    0.0000 C   0  0  0  0  0  0  0  0  0  0  0  0
    0.0000   -1.2377    0.0000 C   0  0  0  0  0  0  0  0  0  0  0  0
    0.7153   -2.4712    0.0000 C   0  0  0  0  0  0  0  0  0  0  0  0
    0.0000   -2.0644    0.0000 C   0  0  0  0  0  0  0  0  0  0  0  0
    2.1414    0.0000    0.0000 C   0  0  0  0  0  0  0  0  0  0  0  0
    3.5677   -0.8266    0.0000 C   0  0  0  0  0  0  0  0  0  0  0  0
  1 11  2  0
  2  3  1  0
  2  4  2  0
  2  5  1  0
  3  6  1  0
  3 10  1  0
  4  7  1  0
  5  8  2  0
  6 11  1  0
  7  9  2  0
  8  9  1  0
M  END

> <chembl_id>
CHEMBL3187537

> <chembl_pref_name>
None

$$$$

     RDKit          2D

 10 10  0  0  0  0  0  0  0  0999 V2000
    2.8566   -1.6489    0.0000 N   0  0  0  0  0  0  0  0  0  0  0  0
    2.1414   -1.2377    0.0000 C   0  0  0  0  0  0  0  0  0  0  0  0
    1.4261   -1.6489    0.0000 C   0  0  0  0  0  0  0  0  0  0  0  0
    0.7152   -1.2377    0.0000 C   0  0  0  0  0  0  0  0  0  0  0  0
    2.1414   -0.4112    0.0000 C   0  0  0  0  0  0  0  0  0  0  0  0
    0.7152   -0.4112    0.0000 C   0  0  0  0  0  0  0  0  0  0  0  0
    1.4261    0.0000    0.0000 C   0  0  0  0  0  0  0  0  0  0  0  0
    3.5675   -1.2377    0.0000 C   0  0  0  0  0  0  0  0  0  0  0  0
    0.0000   -1.6489    0.0000 C   0  0  0  0  0  0  0  0  0  0  0  0
    4.2828   -1.6489    0.0000 C   0  0  0  0  0  0  0  0  0  0  0  0
  1  2  1  0
  1  8  1  0
  2  3  2  0
  2  5  1  0
  3  4  1  0
  4  6  2  0
  4  9  1  0
  5  7  2  0
  6  7  1  0
  8 10  1  0
M  END

> <chembl_id>
CHEMBL3182610

> <chembl_pref_name>
None

$$$$

     RDKit          2D

 10 10  0  0  0  0  0  0  0  0999 V2000
    0.7214   -1.6631    0.0000 F   0  0  0  0  0  0  0  0  0  0  0  0
    3.5735   -1.6372    0.0000 F   0  0  0  0  0  0  0  0  0  0  0  0
    2.1481    0.0000    0.0000 N   0  0  0  0  0  0  0  0  0  0  0  0
    2.1481   -1.6490    0.0000 C   0  0  0  0  0  0  0  0  0  0  0  0
    1.4395   -2.0716    0.0000 C   0  0  0  0  0  0  0  0  0  0  0  0
    2.8662   -2.0576    0.0000 C   0  0  0  0  0  0  0  0  0  0  0  0
    1.4395   -2.8945    0.0000 C   0  0  0  0  0  0  0  0  0  0  0  0
    2.8650   -2.8826    0.0000 C   0  0  0  0  0  0  0  0  0  0  0  0
    2.1481   -0.8262    0.0000 C   0  0  0  0  0  0  0  0  0  0  0  0
    2.1576   -3.3030    0.0000 C   0  0  0  0  0  0  0  0  0  0  0  0
  1  5  1  0
  2  6  1  0
  3  9  3  0
  4  5  2  0
  4  6  1  0
  4  9  1  0
  5  7  1  0
  6  8  2  0
  7 10  2  0
  8 10  1  0
M  END

> <chembl_id>
CHEMBL3185302

> <chembl_pref_name>
None

$$$$

     RDKit          2D

  9  9  0  0  0  0  0  0  0  0999 V2000
    1.2990   -0.7500    0.0000 C   0  0  0  0  0  0  0  0  0  0  0  0
    1.2990    0.7500    0.0000 C   0  0  0  0  0  0  0  0  0  0  0  0
   -1.2990    0.7500    0.0000 N   0  0  0  0  0  0  0  0  0  0  0  0
    2.3383    1.3500    0.0000 N   0  0  0  0  0  0  0  0  0  0  0  0
    2.5956   -2.7031    0.0000 N   0  0  0  0  0  0  0  0  0  0  0  0
    0.0000    1.5000    0.0000 C   0  0  0  0  0  0  0  0  0  0  0  0
    2.5973   -1.5031    0.0000 C   0  0  0  0  0  0  0  0  0  0  0  0
    0.0000   -1.5000    0.0000 C   0  0  0  0  0  0  0  0  0  0  0  0
   -1.2990   -0.7500    0.0000 C   0  0  0  0  0  0  0  0  0  0  0  0
  1  2  2  0
  2  4  1  0
  2  6  1  0
  3  6  2  0
  1  7  1  0
  5  7  1  0
  1  8  1  0
  3  9  1  0
  8  9  2  0
M  END

> <chembl_id>
CHEMBL1188629

> <chembl_pref_name>
None

$$$$

     RDKit          2D

  7  7  0  0  0  0  0  0  0  0999 V2000
   23.0273  -18.6155    0.0000 C   0  0  0  0  0  0  0  0  0  0  0  0
   22.2059  -18.6159    0.0000 C   0  0  0  0  0  0  0  0  0  0  0  0
   21.7996  -19.3208    0.0000 C   0  0  0  0  0  0  0  0  0  0  0  0
   22.2052  -20.0298    0.0000 N   0  0  0  0  0  0  0  0  0  0  0  0
   23.0258  -20.0298    0.0000 N   0  0  0  0  0  0  0  0  0  0  0  0
   23.4368  -19.3199    0.0000 C   0  0  0  0  0  0  0  0  0  0  0  0
   24.2540  -19.3192    0.0000 O   0  0  0  0  0  0  0  0  0  0  0  0
  1  2  2  0
  2  3  1  0
  3  4  2  0
  4  5  1  0
  5  6  1  0
  6  1  1  0
  6  7  2  0
M  END

> <chembl_id>
CHEMBL3228881

> <chembl_pref_name>
None

$$$$

     RDKit          2D

 10 10  0  0  0  0  0  0  0  0999 V2000
   -3.6945   -4.5607    0.0000 N   0  0  0  0  0  0  0  0  0  0  0  0
   -2.8672   -4.5790    0.0000 C   0  0  0  0  0  0  0  0  0  0  0  0
   -2.3982   -5.2577    0.0000 C   0  0  0  0  0  0  0  0  0  0  0  0
   -1.5776   -5.2583    0.0000 C   0  0  0  0  0  0  0  0  0  0  0  0
   -1.9906   -6.5247    0.0000 O   0  0  0  0  0  0  0  0  0  0  0  0
   -2.6596   -6.0440    0.0000 N   0  0  0  0  0  0  0  0  0  0  0  0
   -1.3221   -6.0439    0.0000 N   0  0  0  0  0  0  0  0  0  0  0  0
   -1.0928   -4.5887    0.0000 C   0  0  0  0  0  0  0  0  0  0  0  0
   -4.0903   -3.8387    0.0000 C   0  0  0  0  0  0  0  0  0  0  0  0
   -4.1218   -5.2645    0.0000 C   0  0  0  0  0  0  0  0  0  0  0  0
  6  3  2  0
  5  6  1  0
  3  4  1  0
  4  7  2  0
  7  5  1  0
  1  2  1  0
  4  8  1  0
  2  3  1  0
  1  9  1  0
  1 10  1  0
M  END

> <chembl_id>
CHEMBL1186376

> <chembl_pref_name>
None

$$$$

     RDKit          2D

 10 10  0  0  0  0  0  0  0  0999 V2000
    2.2792   -3.8500    0.0000 N   0  0  0  0  0  0  0  0  0  0  0  0
    1.5667   -3.4375    0.0000 C   0  0  0  0  0  0  0  0  0  0  0  0
    1.5667   -2.6125    0.0000 N   0  0  0  0  0  0  0  0  0  0  0  0
    2.9917   -3.4375    0.0000 C   0  0  0  0  0  0  0  0  0  0  0  0
    2.9917   -2.6042    0.0000 C   0  0  0  0  0  0  0  0  0  0  0  0
    2.2792   -2.1917    0.0000 C   0  0  0  0  0  0  0  0  0  0  0  0
    2.2750   -1.3667    0.0000 O   0  0  0  0  0  0  0  0  0  0  0  0
    3.7125   -3.8500    0.0000 N   0  0  0  0  0  0  0  0  0  0  0  0
    0.8500   -3.8500    0.0000 N   0  0  0  0  0  0  0  0  0  0  0  0
    3.7125   -4.6750    0.0000 C   0  0  0  0  0  0  0  0  0  0  0  0
  2  1  2  0
  3  2  1  0
  4  1  1  0
  5  4  2  0
  6  5  1  0
  7  6  1  0
  8  4  1  0
  9  2  1  0
 10  8  1  0
  6  3  2  0
M  END

> <chembl_id>
CHEMBL55588

> <chembl_pref_name>
None

$$$$

     RDKit          2D

 11 11  0  0  0  0  0  0  0  0999 V2000
    3.6226    7.7745    0.0000 C   0  0  0  0  0  0  0  0  0  0  0  0
    3.6226    9.2745    0.0000 C   0  0  0  0  0  0  0  0  0  0  0  0
    2.3236   10.0245    0.0000 C   0  0  0  0  0  0  0  0  0  0  0  0
    1.0245    9.2745    0.0000 C   0  0  0  0  0  0  0  0  0  0  0  0
    1.0245    7.7745    0.0000 C   0  0  0  0  0  0  0  0  0  0  0  0
    2.3235    7.0245    0.0000 C   0  0  0  0  0  0  0  0  0  0  0  0
   -0.2745    7.0245    0.0000 C   0  0  0  0  0  0  0  0  0  0  0  0
   -0.2745    5.5245    0.0000 C   0  0  0  0  0  0  0  0  0  0  0  0
   -1.5736    4.7745    0.0000 C   0  0  0  0  0  0  0  0  0  0  0  0
   -1.5736    3.2745    0.0000 O   0  0  0  0  0  0  0  0  0  0  0  0
   -2.8726    2.5245    0.0000 N   0  0  0  0  0  0  0  0  0  0  0  0
  1  2  2  0
  2  3  1  0
  3  4  2  0
  4  5  1  0
  5  6  2  0
  6  1  1  0
  5  7  1  0
  7  8  2  0
  8  9  1  0
  9 10  1  0
 10 11  1  0
M  END

> <chembl_id>
CHEMBL3765910

> <chembl_pref_name>
None

$$$$

     RDKit          2D

  8  8  0  0  0  0  0  0  0  0999 V2000
    6.4292   -8.7042    0.0000 N   0  0  0  0  0  0  0  0  0  0  0  0
    5.9167   -9.0125    0.0000 C   0  0  0  0  0  0  0  0  0  0  0  0
    6.9542   -9.0042    0.0000 O   0  0  0  0  0  0  0  0  0  0  0  0
    5.9167   -9.6167    0.0000 C   0  0  0  0  0  0  0  0  0  0  0  0
    5.3917   -8.7167    0.0000 C   0  0  0  0  0  0  0  0  0  0  0  0
    5.4000   -9.9167    0.0000 C   0  0  0  0  0  0  0  0  0  0  0  0
    4.8792   -9.0167    0.0000 C   0  0  0  0  0  0  0  0  0  0  0  0
    4.8792   -9.6167    0.0000 C   0  0  0  0  0  0  0  0  0  0  0  0
  2  1  1  0
  3  1  1  0
  4  2  1  0
  5  2  2  0
  6  4  2  0
  7  5  1  0
  8  7  2  0
  6  8  1  0
M  END

> <chembl_id>
CHEMBL320474

> <chembl_pref_name>
None

$$$$

     RDKit          2D

 10 10  0  0  0  0  0  0  0  0999 V2000
    9.9920   -4.4285    0.0000 C   0  0  0  0  0  0  0  0  0  0  0  0
    9.9920   -5.2457    0.0000 C   0  0  0  0  0  0  0  0  0  0  0  0
   10.6973   -5.6502    0.0000 O   0  0  0  0  0  0  0  0  0  0  0  0
   11.4026   -5.2457    0.0000 C   0  0  0  0  0  0  0  0  0  0  0  0
   11.4026   -4.4285    0.0000 C   0  0  0  0  0  0  0  0  0  0  0  0
   10.6973   -4.0158    0.0000 C   0  0  0  0  0  0  0  0  0  0  0  0
   10.6973   -3.1986    0.0000 O   0  0  0  0  0  0  0  0  0  0  0  0
    9.2831   -4.0220    0.0000 O   0  0  0  0  0  0  0  0  0  0  0  0
   12.1097   -5.6553    0.0000 C   0  0  0  0  0  0  0  0  0  0  0  0
   12.8180   -5.2478    0.0000 N   0  0  0  0  0  0  0  0  0  0  0  0
  1  2  2  0
  1  6  1  0
  2  3  1  0
  3  4  1  0
  4  5  2  0
  5  6  1  0
  6  7  2  0
  1  8  1  0
  4  9  1  0
  9 10  1  0
M  END

> <chembl_id>
CHEMBL3246269

> <chembl_pref_name>
None

$$$$

     RDKit          2D

 10 11  0  0  0  0  0  0  0  0999 V2000
    6.6436  -10.7012    0.0000 C   0  0  0  0  0  0  0  0  0  0  0  0
    6.6425  -11.5291    0.0000 C   0  0  0  0  0  0  0  0  0  0  0  0
    7.3576  -11.9421    0.0000 N   0  0  0  0  0  0  0  0  0  0  0  0
    8.0744  -11.5286    0.0000 C   0  0  0  0  0  0  0  0  0  0  0  0
    8.0716  -10.6976    0.0000 N   0  0  0  0  0  0  0  0  0  0  0  0
    7.3558  -10.2882    0.0000 C   0  0  0  0  0  0  0  0  0  0  0  0
    8.7900  -11.9402    0.0000 N   0  0  0  0  0  0  0  0  0  0  0  0
    8.7912  -12.7656    0.0000 C   0  0  0  0  0  0  0  0  0  0  0  0
    8.3822  -13.4781    0.0000 C   0  0  0  0  0  0  0  0  0  0  0  0
    9.2076  -13.4768    0.0000 C   0  0  0  0  0  0  0  0  0  0  0  0
  2  3  1  0
  5  6  2  0
  6  1  1  0
  1  2  2  0
  4  7  1  0
  3  4  2  0
  7  8  1  0
  9  8  1  0
 10  9  1  0
  8 10  1  0
  4  5  1  0
M  END

> <chembl_id>
CHEMBL1649907

> <chembl_pref_name>
None

$$$$

     RDKit          2D

 10 10  0  0  0  0  0  0  0  0999 V2000
    0.9759   -2.2460    0.0000 O   0  0  0  0  0  0  0  0  0  0  0  0
    2.3578   -0.5235    0.0000 O   0  0  0  0  0  0  0  0  0  0  0  0
    3.0723    0.7140    0.0000 O   0  0  0  0  0  0  0  0  0  0  0  0
    1.6434   -1.7610    0.0000 C   0  0  0  0  0  0  0  0  0  0  0  0
    1.6434   -0.9360    0.0000 C   0  0  0  0  0  0  0  0  0  0  0  0
    2.3108   -2.2460    0.0000 C   0  0  0  0  0  0  0  0  0  0  0  0
    1.2309   -3.0306    0.0000 C   0  0  0  0  0  0  0  0  0  0  0  0
    2.0559   -3.0306    0.0000 C   0  0  0  0  0  0  0  0  0  0  0  0
    2.3578    0.3015    0.0000 C   0  0  0  0  0  0  0  0  0  0  0  0
    1.6434    0.7140    0.0000 C   0  0  0  0  0  0  0  0  0  0  0  0
  1  4  1  0
  1  7  1  0
  2  5  1  0
  2  9  1  0
  3  9  2  0
  4  5  1  0
  4  6  2  0
  6  8  1  0
  7  8  2  0
  9 10  1  0
M  END

> <chembl_id>
CHEMBL1522321

> <chembl_pref_name>
None

$$$$

     RDKit          2D

 11 11  0  0  0  0  0  0  0  0999 V2000
    6.3523   -2.9081    0.0000 C   0  0  0  0  0  0  0  0  0  0  0  0
    6.3512   -3.7354    0.0000 C   0  0  0  0  0  0  0  0  0  0  0  0
    7.0659   -4.1483    0.0000 C   0  0  0  0  0  0  0  0  0  0  0  0
    7.7824   -3.7349    0.0000 C   0  0  0  0  0  0  0  0  0  0  0  0
    7.7794   -2.9045    0.0000 C   0  0  0  0  0  0  0  0  0  0  0  0
    7.0641   -2.4954    0.0000 C   0  0  0  0  0  0  0  0  0  0  0  0
    8.4923   -2.4893    0.0000 C   0  0  0  0  0  0  0  0  0  0  0  0
    9.2083   -2.8991    0.0000 C   0  0  0  0  0  0  0  0  0  0  0  0
    9.9212   -2.4840    0.0000 N   0  0  0  0  0  0  0  0  0  0  0  0
   10.6327   -2.0665    0.0000 N   0  0  0  0  0  0  0  0  0  0  0  0
   11.3451   -1.6499    0.0000 N   0  0  0  0  0  0  0  0  0  0  0  0
  1  2  2  0
  2  3  1  0
  3  4  2  0
  4  5  1  0
  5  6  2  0
  6  1  1  0
  5  7  1  0
  7  8  2  0
  8  9  1  0
  9 10  2  0
 10 11  2  0
M  CHG  2  10   1  11  -1
M  END

> <chembl_id>
CHEMBL3236170

> <chembl_pref_name>
None

$$$$

     RDKit          2D

 10 10  0  0  0  0  0  0  0  0999 V2000
    2.3932  -14.4386    0.0000 N   0  0  0  0  0  0  0  0  0  0  0  0
    3.0656  -13.9606    0.0000 C   0  0  0  0  0  0  0  0  0  0  0  0
    2.8206  -13.1727    0.0000 N   0  0  0  0  0  0  0  0  0  0  0  0
    1.9931  -13.1637    0.0000 C   0  0  0  0  0  0  0  0  0  0  0  0
    1.7331  -13.9458    0.0000 C   0  0  0  0  0  0  0  0  0  0  0  0
    3.8495  -14.2265    0.0000 C   0  0  0  0  0  0  0  0  0  0  0  0
    4.4697  -13.6824    0.0000 C   0  0  0  0  0  0  0  0  0  0  0  0
    4.3085  -12.8733    0.0000 C   0  0  0  0  0  0  0  0  0  0  0  0
    4.9267  -12.3265    0.0000 O   0  0  0  0  0  0  0  0  0  0  0  0
    3.5253  -12.6056    0.0000 O   0  0  0  0  0  0  0  0  0  0  0  0
  1  2  1  0
  2  6  1  0
  6  7  2  0
  7  8  1  0
  2  3  2  0
  3  4  1  0
  8  9  1  0
  8 10  2  0
  4  5  2  0
  5  1  1  0
M  END

> <chembl_id>
CHEMBL1789796

> <chembl_pref_name>
None

$$$$

     RDKit          2D

  9  9  0  0  0  0  0  0  0  0999 V2000
   -0.0953   -1.5165    0.0000 S   0  0  0  0  0  0  0  0  0  0  0  0
   -1.7479   -1.0290    0.0000 O   0  0  0  0  0  0  0  0  0  0  0  0
   -1.3064    0.3300    0.0000 O   0  0  0  0  0  0  0  0  0  0  0  0
    0.9847   -0.7319    0.0000 N   0  0  0  0  0  0  0  0  0  0  0  0
   -0.3502   -0.7319    0.0000 C   0  0  0  0  0  0  0  0  0  0  0  0
    0.3172   -0.2470    0.0000 C   0  0  0  0  0  0  0  0  0  0  0  0
   -1.1348   -0.4769    0.0000 C   0  0  0  0  0  0  0  0  0  0  0  0
    0.7297   -1.5165    0.0000 C   0  0  0  0  0  0  0  0  0  0  0  0
    0.3172    0.5780    0.0000 C   0  0  0  0  0  0  0  0  0  0  0  0
  1  5  1  0
  1  8  1  0
  2  7  2  0
  3  7  1  0
  4  6  1  0
  4  8  2  0
  5  6  2  0
  5  7  1  0
  6  9  1  0
M  END

> <chembl_id>
CHEMBL1402698

> <chembl_pref_name>
None

$$$$

     RDKit          2D

 10 10  0  0  1  0  0  0  0  0999 V2000
   -0.1148    0.8974    0.0000 O   0  0  0  0  0  0  0  0  0  0  0  0
   -0.8292   -0.3401    0.0000 O   0  0  0  0  0  0  0  0  0  0  0  0
    1.2672   -1.6501    0.0000 N   0  0  0  0  0  0  0  0  0  0  0  0
   -0.0677   -1.6501    0.0000 N   0  0  0  0  0  0  0  0  0  0  0  0
    1.0122   -2.4347    0.0000 N   0  0  0  0  0  0  0  0  0  0  0  0
    0.1872   -2.4347    0.0000 N   0  0  0  0  0  0  0  0  0  0  0  0
    1.3142    0.0724    0.0000 N   0  0  0  0  0  0  0  0  0  0  0  0
    0.5997   -1.1651    0.0000 C   0  0  0  0  0  0  0  0  0  0  0  0
    0.5997   -0.3401    0.0000 C   0  0  0  0  0  0  0  0  0  0  0  0
   -0.1148    0.0724    0.0000 C   0  0  0  0  0  0  0  0  0  0  0  0
  1 10  2  0
  2 10  1  0
  3  5  1  0
  3  8  2  0
  4  6  1  0
  4  8  1  0
  5  6  2  0
  9  7  1  1
  8  9  1  0
  9 10  1  0
M  END

> <chembl_id>
CHEMBL1496855

> <chembl_pref_name>
None

$$$$

     RDKit          2D

  8  8  0  0  0  0  0  0  0  0999 V2000
    2.0623   -1.4288    0.0000 N   0  0  0  0  0  0  0  0  0  0  0  0
    0.0000   -0.7161    0.0000 N   0  0  0  0  0  0  0  0  0  0  0  0
    1.6499   -0.7161    0.0000 C   0  0  0  0  0  0  0  0  0  0  0  0
    2.0623    0.0000    0.0000 C   0  0  0  0  0  0  0  0  0  0  0  0
    0.8249   -0.7161    0.0000 C   0  0  0  0  0  0  0  0  0  0  0  0
    2.8873   -1.4288    0.0000 C   0  0  0  0  0  0  0  0  0  0  0  0
    2.8873    0.0000    0.0000 C   0  0  0  0  0  0  0  0  0  0  0  0
    3.2998   -0.7161    0.0000 C   0  0  0  0  0  0  0  0  0  0  0  0
  1  3  2  0
  1  6  1  0
  2  5  3  0
  3  4  1  0
  3  5  1  0
  4  7  2  0
  6  8  2  0
  7  8  1  0
M  END

> <chembl_id>
CHEMBL3185861

> <chembl_pref_name>
None

$$$$

     RDKit          2D

  9  9  0  0  0  0  0  0  0  0999 V2000
   16.7883  -11.3867    0.0000 O   0  0  0  0  0  0  0  0  0  0  0  0
   16.8316  -12.2053    0.0000 C   0  0  0  0  0  0  0  0  0  0  0  0
   17.5602  -12.5777    0.0000 N   0  0  0  0  0  0  0  0  0  0  0  0
   18.2454  -12.1316    0.0000 C   0  0  0  0  0  0  0  0  0  0  0  0
   18.2058  -11.3149    0.0000 C   0  0  0  0  0  0  0  0  0  0  0  0
   17.4772  -10.9424    0.0000 C   0  0  0  0  0  0  0  0  0  0  0  0
   16.1427  -12.6496    0.0000 O   0  0  0  0  0  0  0  0  0  0  0  0
   17.4339  -10.1238    0.0000 O   0  0  0  0  0  0  0  0  0  0  0  0
   18.8910  -10.8687    0.0000 C   0  0  0  0  0  0  0  0  0  0  0  0
  1  2  1  0
  2  3  1  0
  3  4  1  0
  4  5  2  0
  5  6  1  0
  1  6  1  0
  2  7  2  0
  6  8  2  0
  5  9  1  0
M  END

> <chembl_id>
CHEMBL3250628

> <chembl_pref_name>
None

$$$$

     RDKit          2D

  8  8  0  0  0  0  0  0  0  0999 V2000
   11.1263   -9.4153    0.0000 O   0  0  0  0  0  0  0  0  0  0  0  0
   11.8379   -9.0056    0.0000 C   0  0  0  0  0  0  0  0  0  0  0  0
   12.5571   -9.4190    0.0000 C   0  0  0  0  0  0  0  0  0  0  0  0
   11.1303  -10.2364    0.0000 C   0  0  0  0  0  0  0  0  0  0  0  0
   11.8495  -10.6499    0.0000 N   0  0  0  0  0  0  0  0  0  0  0  0
   12.5504  -10.2339    0.0000 C   0  0  0  0  0  0  0  0  0  0  0  0
   11.8410   -8.1885    0.0000 O   0  0  0  0  0  0  0  0  0  0  0  0
   10.4259  -10.6503    0.0000 O   0  0  0  0  0  0  0  0  0  0  0  0
  2  1  1  0
  3  2  1  0
  4  1  1  0
  5  4  1  0
  6  5  1  0
  7  2  2  0
  8  4  2  0
  6  3  2  0
M  END

> <chembl_id>
CHEMBL3250627

> <chembl_pref_name>
None

$$$$

     RDKit          2D

 10 10  0  0  0  0  0  0  0  0999 V2000
    1.2990   -0.7500    0.0000 C   0  0  0  0  0  0  0  0  0  0  0  0
    1.2990    0.7500    0.0000 C   0  0  0  0  0  0  0  0  0  0  0  0
    0.0000    1.5000    0.0000 C   0  0  0  0  0  0  0  0  0  0  0  0
   -1.2990    0.7500    0.0000 C   0  0  0  0  0  0  0  0  0  0  0  0
   -1.2990   -0.7500    0.0000 C   0  0  0  0  0  0  0  0  0  0  0  0
    0.0000   -1.5000    0.0000 N   0  0  0  0  0  0  0  0  0  0  0  0
    0.0000    2.7000    0.0000 O   0  0  0  0  0  0  0  0  0  0  0  0
   -2.3383    1.3500    0.0000 C   0  0  0  0  0  0  0  0  0  0  0  0
    0.0000   -2.7000    0.0000 C   0  0  0  0  0  0  0  0  0  0  0  0
    2.3383    1.3500    0.0000 O   0  0  0  0  0  0  0  0  0  0  0  0
  1  2  2  0
  2  3  1  0
  3  4  1  0
  4  5  2  0
  5  6  1  0
  1  6  1  0
  3  7  2  0
  4  8  1  0
  6  9  1  0
  2 10  1  0
M  END

> <chembl_id>
CHEMBL3785296

> <chembl_pref_name>
None

$$$$

     RDKit          2D

 10 10  0  0  0  0  0  0  0  0999 V2000
   -1.3064    4.9494    0.0000 O   0  0  0  0  0  0  0  0  0  0  0  0
   -2.3421    3.1476    0.0000 O   0  0  0  0  0  0  0  0  0  0  0  0
    1.2990   -0.7500    0.0000 N   0  0  0  0  0  0  0  0  0  0  0  0
    0.0000    1.5000    0.0000 C   0  0  0  0  0  0  0  0  0  0  0  0
   -0.0031    3.0008    0.0000 C   0  0  0  0  0  0  0  0  0  0  0  0
   -1.3039    3.7494    0.0000 C   0  0  0  0  0  0  0  0  0  0  0  0
    1.2990    0.7500    0.0000 C   0  0  0  0  0  0  0  0  0  0  0  0
   -1.2990    0.7500    0.0000 C   0  0  0  0  0  0  0  0  0  0  0  0
   -1.2990   -0.7500    0.0000 C   0  0  0  0  0  0  0  0  0  0  0  0
    0.0000   -1.5000    0.0000 C   0  0  0  0  0  0  0  0  0  0  0  0
  1  6  2  0
  2  6  1  0
  3  7  2  0
  3 10  1  0
  4  5  1  0
  4  7  1  0
  4  8  2  0
  5  6  1  0
  8  9  1  0
  9 10  2  0
M  END

> <chembl_id>
CHEMBL1741437

> <chembl_pref_name>
None

$$$$

     RDKit          2D

 11 11  0  0  0  0  0  0  0  0999 V2000
    6.2385   -5.1020    0.0000 C   0  0  0  0  0  0  0  0  0  0  0  0
    5.1993   -4.5021    0.0000 N   0  0  0  0  0  0  0  0  0  0  0  0
    5.1983   -3.0012    0.0000 C   0  0  0  0  0  0  0  0  0  0  0  0
    3.8985   -2.2508    0.0000 C   0  0  0  0  0  0  0  0  0  0  0  0
    2.5988   -1.5004    0.0000 C   0  0  0  0  0  0  0  0  0  0  0  0
    1.2990   -0.7500    0.0000 C   0  0  0  0  0  0  0  0  0  0  0  0
    1.2990    0.7500    0.0000 C   0  0  0  0  0  0  0  0  0  0  0  0
    0.0000    1.5000    0.0000 C   0  0  0  0  0  0  0  0  0  0  0  0
   -1.2990    0.7500    0.0000 C   0  0  0  0  0  0  0  0  0  0  0  0
   -1.2990   -0.7500    0.0000 N   0  0  0  0  0  0  0  0  0  0  0  0
    0.0000   -1.5000    0.0000 C   0  0  0  0  0  0  0  0  0  0  0  0
  1  2  1  0
  2  3  1  0
  3  4  1  0
  4  5  3  0
  5  6  1  0
  6  7  2  0
  7  8  1  0
  8  9  2  0
  9 10  1  0
 10 11  2  0
 11  6  1  0
M  END

> <chembl_id>
CHEMBL149808

> <chembl_pref_name>
None

$$$$

     RDKit          2D

 10 10  0  0  0  0  0  0  0  0999 V2000
    2.9716   -2.9303    0.0000 C   0  0  0  0  0  0  0  0  0  0  0  0
    2.9716   -3.7475    0.0000 C   0  0  0  0  0  0  0  0  0  0  0  0
    3.6769   -4.1520    0.0000 N   0  0  0  0  0  0  0  0  0  0  0  0
    4.3822   -3.7475    0.0000 C   0  0  0  0  0  0  0  0  0  0  0  0
    4.3822   -2.9303    0.0000 C   0  0  0  0  0  0  0  0  0  0  0  0
    3.6769   -2.5176    0.0000 C   0  0  0  0  0  0  0  0  0  0  0  0
    2.2645   -4.1571    0.0000 N   0  0  0  0  0  0  0  0  0  0  0  0
    5.0927   -2.5228    0.0000 C   0  0  0  0  0  0  0  0  0  0  0  0
    5.7992   -2.9335    0.0000 O   0  0  0  0  0  0  0  0  0  0  0  0
    5.0951   -1.7056    0.0000 O   0  0  0  0  0  0  0  0  0  0  0  0
  1  2  2  0
  1  6  1  0
  2  3  1  0
  3  4  2  0
  4  5  1  0
  5  6  2  0
  2  7  1  0
  8  9  1  0
  8 10  2  0
  5  8  1  0
M  END

> <chembl_id>
CHEMBL3322864

> <chembl_pref_name>
None

$$$$

     RDKit          2D

  9  9  0  0  0  0  0  0  0  0999 V2000
   -0.0246   -4.0203    0.0000 S   0  0  0  0  0  0  0  0  0  0  0  0
    0.2773   -1.5132    0.0000 O   0  0  0  0  0  0  0  0  0  0  0  0
   -1.1516   -1.5132    0.0000 O   0  0  0  0  0  0  0  0  0  0  0  0
   -1.1046   -3.2356    0.0000 N   0  0  0  0  0  0  0  0  0  0  0  0
   -0.8496   -4.0203    0.0000 N   0  0  0  0  0  0  0  0  0  0  0  0
   -0.4371   -2.7507    0.0000 C   0  0  0  0  0  0  0  0  0  0  0  0
   -0.4371   -1.9257    0.0000 C   0  0  0  0  0  0  0  0  0  0  0  0
    0.2303   -3.2356    0.0000 C   0  0  0  0  0  0  0  0  0  0  0  0
    0.2773   -0.6882    0.0000 C   0  0  0  0  0  0  0  0  0  0  0  0
  1  5  1  0
  1  8  1  0
  2  7  1  0
  2  9  1  0
  3  7  2  0
  4  5  2  0
  4  6  1  0
  6  7  1  0
  6  8  2  0
M  END

> <chembl_id>
CHEMBL1966150

> <chembl_pref_name>
None

$$$$

     RDKit          2D

  9  9  0  0  0  0  0  0  0  0999 V2000
    1.9865   -0.9604    0.0000 C   0  0  0  0  0  0  0  0  0  0  0  0
    1.2720   -1.3729    0.0000 C   0  0  0  0  0  0  0  0  0  0  0  0
    0.5575   -0.9604    0.0000 C   0  0  0  0  0  0  0  0  0  0  0  0
   -0.1570   -1.3729    0.0000 C   0  0  0  0  0  0  0  0  0  0  0  0
    0.5575   -0.1354    0.0000 C   0  0  0  0  0  0  0  0  0  0  0  0
    1.2720    0.2771    0.0000 C   0  0  0  0  0  0  0  0  0  0  0  0
    1.9865   -0.1354    0.0000 C   0  0  0  0  0  0  0  0  0  0  0  0
    1.2720   -2.1979    0.0000 Cl  0  0  0  0  0  0  0  0  0  0  0  0
    1.2720    1.1021    0.0000 O   0  0  0  0  0  0  0  0  0  0  0  0
  1  2  2  0
  1  7  1  0
  2  3  1  0
  2  8  1  0
  3  4  1  0
  3  5  2  0
  5  6  1  0
  6  7  2  0
  6  9  1  0
M  END

> <chembl_id>
CHEMBL1230222

> <chembl_pref_name>
CHLOROCRESOL

$$$$

     RDKit          2D

  9  9  0  0  0  0  0  0  0  0999 V2000
    8.3644   -4.7804    0.0000 C   0  0  0  0  0  0  0  0  0  0  0  0
    8.3632   -5.6073    0.0000 C   0  0  0  0  0  0  0  0  0  0  0  0
    9.0776   -6.0199    0.0000 C   0  0  0  0  0  0  0  0  0  0  0  0
    9.7936   -5.6068    0.0000 C   0  0  0  0  0  0  0  0  0  0  0  0
    9.7907   -4.7768    0.0000 C   0  0  0  0  0  0  0  0  0  0  0  0
    9.0758   -4.3679    0.0000 C   0  0  0  0  0  0  0  0  0  0  0  0
    9.0734   -3.5434    0.0000 O   0  0  0  0  0  0  0  0  0  0  0  0
    9.0774   -6.8444    0.0000 N   0  0  0  0  0  0  0  0  0  0  0  0
   10.5033   -4.3619    0.0000 Cl  0  0  0  0  0  0  0  0  0  0  0  0
  1  2  2  0
  2  3  1  0
  3  4  2  0
  4  5  1  0
  5  6  2  0
  6  1  1  0
  6  7  1  0
  3  8  1  0
  5  9  1  0
M  END

> <chembl_id>
CHEMBL4079998

> <chembl_pref_name>
None

$$$$

     RDKit          2D

  9  9  0  0  0  0  0  0  0  0999 V2000
    0.8761   -1.8289    0.0000 N   0  0  0  0  0  0  0  0  0  0  0  0
    0.1616   -1.4164    0.0000 C   0  0  0  0  0  0  0  0  0  0  0  0
    0.1616   -0.5914    0.0000 C   0  0  0  0  0  0  0  0  0  0  0  0
   -0.5528   -0.1789    0.0000 C   0  0  0  0  0  0  0  0  0  0  0  0
   -0.5528    0.6461    0.0000 C   0  0  0  0  0  0  0  0  0  0  0  0
    0.1616    1.0586    0.0000 C   0  0  0  0  0  0  0  0  0  0  0  0
    0.8761    0.6461    0.0000 C   0  0  0  0  0  0  0  0  0  0  0  0
    0.8761   -0.1789    0.0000 C   0  0  0  0  0  0  0  0  0  0  0  0
    0.1616    1.8836    0.0000 Cl  0  0  0  0  0  0  0  0  0  0  0  0
  2  1  1  0
  2  3  1  0
  4  3  2  0
  8  3  1  0
  4  5  1  0
  5  6  2  0
  7  6  1  0
  9  6  1  0
  8  7  2  0
M  END

> <chembl_id>
CHEMBL13218

> <chembl_pref_name>
None

$$$$

     RDKit          2D

 10 10  0  0  0  0  0  0  0  0999 V2000
    6.2511  -11.7140    0.0000 C   0  0  0  0  0  0  0  0  0  0  0  0
    7.0735  -11.7147    0.0000 C   0  0  0  0  0  0  0  0  0  0  0  0
    6.6596  -12.9835    0.0000 O   0  0  0  0  0  0  0  0  0  0  0  0
    5.9892  -12.5019    0.0000 N   0  0  0  0  0  0  0  0  0  0  0  0
    7.3295  -12.5018    0.0000 N   0  0  0  0  0  0  0  0  0  0  0  0
    7.5592  -11.0437    0.0000 C   0  0  0  0  0  0  0  0  0  0  0  0
    8.3798  -11.1285    0.0000 N   0  0  0  0  0  0  0  0  0  0  0  0
    7.2223  -10.2906    0.0000 O   0  0  0  0  0  0  0  0  0  0  0  0
    5.7687  -11.0448    0.0000 C   0  0  0  0  0  0  0  0  0  0  0  0
    6.1071  -10.2924    0.0000 O   0  0  0  0  0  0  0  0  0  0  0  0
  5  3  1  0
  2  6  1  0
  4  1  2  0
  6  7  1  0
  3  4  1  0
  6  8  2  0
  1  2  1  0
  1  9  1  0
  2  5  2  0
  9 10  1  0
M  END

> <chembl_id>
CHEMBL461749

> <chembl_pref_name>
None

$$$$

     RDKit          2D

 10 10  0  0  0  0  0  0  0  0999 V2000
    9.8719  -11.4724    0.0000 C   0  0  0  0  0  0  0  0  0  0  0  0
    9.8708  -12.2993    0.0000 C   0  0  0  0  0  0  0  0  0  0  0  0
   10.5852  -12.7119    0.0000 C   0  0  0  0  0  0  0  0  0  0  0  0
   11.3012  -12.2988    0.0000 C   0  0  0  0  0  0  0  0  0  0  0  0
   11.2984  -11.4688    0.0000 C   0  0  0  0  0  0  0  0  0  0  0  0
   10.5834  -11.0599    0.0000 C   0  0  0  0  0  0  0  0  0  0  0  0
   10.5809  -10.2354    0.0000 C   0  0  0  0  0  0  0  0  0  0  0  0
   11.2938   -9.8209    0.0000 O   0  0  0  0  0  0  0  0  0  0  0  0
    9.8656   -9.8252    0.0000 O   0  0  0  0  0  0  0  0  0  0  0  0
    9.1564  -12.7109    0.0000 N   0  0  0  0  0  0  0  0  0  0  0  0
  5  6  2  0
  6  1  1  0
  2  3  1  0
  6  7  1  0
  7  8  1  0
  3  4  2  0
  7  9  2  0
  1  2  2  0
  2 10  1  0
  4  5  1  0
M  END

> <chembl_id>
CHEMBL307782

> <chembl_pref_name>
3-AMINOBENZOIC ACID

$$$$

     RDKit          2D

 10 11  0  0  0  0  0  0  0  0999 V2000
    4.1125   -2.4625    0.0000 C   0  0  0  0  0  0  0  0  0  0  0  0
    4.4667   -1.8542    0.0000 N   0  0  0  0  0  0  0  0  0  0  0  0
    3.5375   -2.2750    0.0000 C   0  0  0  0  0  0  0  0  0  0  0  0
    4.1167   -1.4875    0.0000 C   0  0  0  0  0  0  0  0  0  0  0  0
    3.5417   -1.6667    0.0000 C   0  0  0  0  0  0  0  0  0  0  0  0
    4.3167   -3.0250    0.0000 O   0  0  0  0  0  0  0  0  0  0  0  0
    3.0167   -2.5750    0.0000 C   0  0  0  0  0  0  0  0  0  0  0  0
    3.0167   -1.3667    0.0000 C   0  0  0  0  0  0  0  0  0  0  0  0
    2.5000   -2.2750    0.0000 C   0  0  0  0  0  0  0  0  0  0  0  0
    2.5000   -1.6667    0.0000 C   0  0  0  0  0  0  0  0  0  0  0  0
  2  1  1  0
  3  1  1  0
  4  2  1  0
  5  3  2  0
  6  1  2  0
  7  3  1  0
  8  5  1  0
  9  7  2  0
 10  9  1  0
  5  4  1  0
 10  8  2  0
M  END

> <chembl_id>
CHEMBL79350

> <chembl_pref_name>
None

$$$$

     RDKit          2D

  9  9  0  0  0  0  0  0  0  0999 V2000
    2.1409   -1.6442    0.0000 N   0  0  0  0  0  0  0  0  0  0  0  0
    1.4358   -0.4139    0.0000 C   0  0  0  0  0  0  0  0  0  0  0  0
    1.4358   -1.2274    0.0000 C   0  0  0  0  0  0  0  0  0  0  0  0
    0.7137    0.0000    0.0000 C   0  0  0  0  0  0  0  0  0  0  0  0
    0.7137   -1.6442    0.0000 C   0  0  0  0  0  0  0  0  0  0  0  0
    2.1495    0.0000    0.0000 C   0  0  0  0  0  0  0  0  0  0  0  0
    0.0000   -0.4139    0.0000 C   0  0  0  0  0  0  0  0  0  0  0  0
    0.0000   -1.2274    0.0000 C   0  0  0  0  0  0  0  0  0  0  0  0
    2.8545   -0.4254    0.0000 C   0  0  0  0  0  0  0  0  0  0  0  0
  1  3  1  0
  2  3  2  0
  2  4  1  0
  2  6  1  0
  3  5  1  0
  4  7  2  0
  5  8  2  0
  6  9  1  0
  7  8  1  0
M  END

> <chembl_id>
CHEMBL3185556

> <chembl_pref_name>
None

$$$$

     RDKit          2D

  9  9  0  0  0  0  0  0  0  0999 V2000
    1.2340   -0.7152    0.0000 C   0  0  0  0  0  0  0  0  0  0  0  0
    2.8830   -0.7152    0.0000 C   0  0  0  0  0  0  0  0  0  0  0  0
    1.6453    0.0000    0.0000 C   0  0  0  0  0  0  0  0  0  0  0  0
    1.6453   -1.4267    0.0000 C   0  0  0  0  0  0  0  0  0  0  0  0
    2.4717    0.0000    0.0000 C   0  0  0  0  0  0  0  0  0  0  0  0
    2.4717   -1.4267    0.0000 C   0  0  0  0  0  0  0  0  0  0  0  0
    0.4113   -0.7152    0.0000 C   0  0  0  0  0  0  0  0  0  0  0  0
    3.7057   -0.7152    0.0000 C   0  0  0  0  0  0  0  0  0  0  0  0
    0.0000    0.0000    0.0000 C   0  0  0  0  0  0  0  0  0  0  0  0
  1  3  2  0
  1  4  1  0
  1  7  1  0
  2  5  2  0
  2  6  1  0
  2  8  1  0
  3  5  1  0
  4  6  2  0
  7  9  2  0
M  END

> <chembl_id>
CHEMBL3187064

> <chembl_pref_name>
None

$$$$

     RDKit          2D

  8  8  0  0  0  0  0  0  0  0999 V2000
    2.8596   -1.6500    0.0000 N   0  0  0  0  0  0  0  0  0  0  0  0
    2.1447   -1.2382    0.0000 C   0  0  0  0  0  0  0  0  0  0  0  0
    0.7149   -1.2382    0.0000 C   0  0  0  0  0  0  0  0  0  0  0  0
    1.4298   -1.6500    0.0000 C   0  0  0  0  0  0  0  0  0  0  0  0
    2.1447   -0.4118    0.0000 C   0  0  0  0  0  0  0  0  0  0  0  0
    0.7149   -0.4118    0.0000 C   0  0  0  0  0  0  0  0  0  0  0  0
    1.4298    0.0000    0.0000 C   0  0  0  0  0  0  0  0  0  0  0  0
    0.0000   -1.6500    0.0000 C   0  0  0  0  0  0  0  0  0  0  0  0
  1  2  1  0
  2  4  1  0
  2  5  2  0
  3  4  2  0
  3  6  1  0
  3  8  1  0
  5  7  1  0
  6  7  2  0
M  END

> <chembl_id>
CHEMBL3182179

> <chembl_pref_name>
None

$$$$

     RDKit          2D

 10 10  0  0  0  0  0  0  0  0999 V2000
    0.6713    0.0000    0.0000 O   0  0  0  0  0  0  0  0  0  0  0  0
    1.3376   -0.4850    0.0000 C   0  0  0  0  0  0  0  0  0  0  0  0
    1.0779   -1.2690    0.0000 C   0  0  0  0  0  0  0  0  0  0  0  0
    2.1167   -0.2303    0.0000 C   0  0  0  0  0  0  0  0  0  0  0  0
    0.0000   -0.4850    0.0000 C   0  0  0  0  0  0  0  0  0  0  0  0
    0.2597   -1.2690    0.0000 C   0  0  0  0  0  0  0  0  0  0  0  0
    2.7242   -0.7840    0.0000 C   0  0  0  0  0  0  0  0  0  0  0  0
    3.5032   -0.5243    0.0000 C   0  0  0  0  0  0  0  0  0  0  0  0
    4.1157   -1.0828    0.0000 C   0  0  0  0  0  0  0  0  0  0  0  0
    4.8997   -0.8231    0.0000 C   0  0  0  0  0  0  0  0  0  0  0  0
  1  2  1  0
  1  5  1  0
  2  3  2  0
  2  4  1  0
  3  6  1  0
  4  7  1  0
  5  6  2  0
  7  8  1  0
  8  9  1  0
  9 10  1  0
M  END

> <chembl_id>
CHEMBL3182720

> <chembl_pref_name>
None

$$$$

     RDKit          2D

 10 10  0  0  0  0  0  0  0  0999 V2000
   27.0974   -2.9537    0.0000 N   0  0  0  0  0  0  0  0  0  0  0  0
   27.8060   -2.5421    0.0000 C   0  0  0  0  0  0  0  0  0  0  0  0
   28.5251   -2.9648    0.0000 N   0  0  0  0  0  0  0  0  0  0  0  0
   27.0965   -3.7808    0.0000 C   0  0  0  0  0  0  0  0  0  0  0  0
   26.3803   -2.5445    0.0000 C   0  0  0  0  0  0  0  0  0  0  0  0
   26.3809   -1.7174    0.0000 C   0  0  0  0  0  0  0  0  0  0  0  0
   27.0937   -1.3020    0.0000 C   0  0  0  0  0  0  0  0  0  0  0  0
   27.8051   -1.7139    0.0000 C   0  0  0  0  0  0  0  0  0  0  0  0
   26.3827   -4.1918    0.0000 C   0  0  0  0  0  0  0  0  0  0  0  0
   26.3816   -5.0155    0.0000 C   0  0  0  0  0  0  0  0  0  0  0  0
  1  2  1  0
  2  3  2  0
  1  4  1  0
  1  5  1  0
  5  6  2  0
  6  7  1  0
  7  8  2  0
  8  2  1  0
  4  9  1  0
  9 10  2  0
M  END

> <chembl_id>
CHEMBL3303542

> <chembl_pref_name>
None

$$$$

     RDKit          2D

  9  9  0  0  0  0  0  0  0  0999 V2000
    2.8596    0.0000    0.0000 S   0  0  0  0  0  0  0  0  0  0  0  0
    1.4298   -2.5022    0.0000 O   0  0  0  0  0  0  0  0  0  0  0  0
    2.1304   -1.2640    0.0000 N   0  0  0  0  0  0  0  0  0  0  0  0
    1.4298   -0.0400    0.0000 N   0  0  0  0  0  0  0  0  0  0  0  0
    1.4298   -1.6786    0.0000 C   0  0  0  0  0  0  0  0  0  0  0  0
    0.7149   -1.2497    0.0000 C   0  0  0  0  0  0  0  0  0  0  0  0
    2.1304   -0.4404    0.0000 C   0  0  0  0  0  0  0  0  0  0  0  0
    0.7149   -0.4404    0.0000 C   0  0  0  0  0  0  0  0  0  0  0  0
    0.0000   -1.6643    0.0000 C   0  0  0  0  0  0  0  0  0  0  0  0
  1  7  2  0
  2  5  2  0
  3  5  1  0
  3  7  1  0
  4  7  1  0
  4  8  1  0
  5  6  1  0
  6  8  2  0
  6  9  1  0
M  END

> <chembl_id>
CHEMBL3186154

> <chembl_pref_name>
None

$$$$

     RDKit          2D

 10 10  0  0  0  0  0  0  0  0999 V2000
    8.5152   -3.9708    0.0000 C   0  0  0  0  0  0  0  0  0  0  0  0
    8.5141   -4.7982    0.0000 C   0  0  0  0  0  0  0  0  0  0  0  0
    9.9425   -3.9672    0.0000 N   0  0  0  0  0  0  0  0  0  0  0  0
    9.2271   -3.5580    0.0000 N   0  0  0  0  0  0  0  0  0  0  0  0
    9.9453   -4.7977    0.0000 C   0  0  0  0  0  0  0  0  0  0  0  0
    9.2281   -5.2088    0.0000 N   0  0  0  0  0  0  0  0  0  0  0  0
    7.8007   -3.5585    0.0000 C   0  0  0  0  0  0  0  0  0  0  0  0
    7.7997   -5.2107    0.0000 O   0  0  0  0  0  0  0  0  0  0  0  0
    9.2275   -6.0338    0.0000 N   0  0  0  0  0  0  0  0  0  0  0  0
   10.6599   -5.2101    0.0000 N   0  0  0  0  0  0  0  0  0  0  0  0
  2  6  1  0
  5  6  1  0
  5  3  2  0
  1  7  1  0
  1  2  1  0
  2  8  2  0
  3  4  1  0
  6  9  1  0
  4  1  2  0
  5 10  1  0
M  END

> <chembl_id>
CHEMBL569206

> <chembl_pref_name>
None

$$$$

     RDKit          2D

  9  9  0  0  0  0  0  0  0  0999 V2000
   14.0097    0.7204    0.0000 C   0  0  0  0  0  0  0  0  0  0  0  0
   14.0085   -0.1064    0.0000 C   0  0  0  0  0  0  0  0  0  0  0  0
   14.7229   -0.5190    0.0000 C   0  0  0  0  0  0  0  0  0  0  0  0
   15.4388   -0.1059    0.0000 C   0  0  0  0  0  0  0  0  0  0  0  0
   15.4359    0.7240    0.0000 C   0  0  0  0  0  0  0  0  0  0  0  0
   14.7211    1.1328    0.0000 C   0  0  0  0  0  0  0  0  0  0  0  0
   14.7186    1.9572    0.0000 O   0  0  0  0  0  0  0  0  0  0  0  0
   16.1484    1.1389    0.0000 S   0  0  0  0  0  0  0  0  0  0  0  0
   16.8639    0.7294    0.0000 C   0  0  0  0  0  0  0  0  0  0  0  0
  4  5  1  0
  2  3  1  0
  5  6  2  0
  6  1  1  0
  1  2  2  0
  6  7  1  0
  3  4  2  0
  5  8  1  0
  8  9  1  0
M  END

> <chembl_id>
CHEMBL225343

> <chembl_pref_name>
None

$$$$

     RDKit          2D

  8  8  0  0  0  0  0  0  0  0999 V2000
    1.2318   -1.4266    0.0000 N   0  0  0  0  0  0  0  0  0  0  0  0
    0.4068   -1.4266    0.0000 C   0  0  0  0  0  0  0  0  0  0  0  0
    1.6443   -0.7161    0.0000 C   0  0  0  0  0  0  0  0  0  0  0  0
    0.0000   -0.7161    0.0000 C   0  0  0  0  0  0  0  0  0  0  0  0
    1.2318    0.0000    0.0000 C   0  0  0  0  0  0  0  0  0  0  0  0
    1.6443   -2.1427    0.0000 C   0  0  0  0  0  0  0  0  0  0  0  0
    0.4068    0.0000    0.0000 C   0  0  0  0  0  0  0  0  0  0  0  0
    2.4693   -2.1427    0.0000 C   0  0  0  0  0  0  0  0  0  0  0  0
  1  2  2  0
  1  3  1  0
  1  6  1  0
  2  4  1  0
  3  5  2  0
  4  7  2  0
  5  7  1  0
  6  8  1  0
M  CHG  1   1   1
M  END

> <chembl_id>
CHEMBL1237202

> <chembl_pref_name>
None

$$$$

     RDKit          2D

  7  7  0  0  0  0  0  0  0  0999 V2000
    0.0000   -1.0929    0.0000 S   0  0  0  0  0  0  0  0  0  0  0  0
    1.4501   -0.8356    0.0000 N   0  0  0  0  0  0  0  0  0  0  0  0
    2.1263   -1.3013    0.0000 N   0  0  0  0  0  0  0  0  0  0  0  0
    1.0631   -2.1071    0.0000 N   0  0  0  0  0  0  0  0  0  0  0  0
    1.8881   -2.1071    0.0000 N   0  0  0  0  0  0  0  0  0  0  0  0
    0.7953   -1.3332    0.0000 C   0  0  0  0  0  0  0  0  0  0  0  0
    1.4416    0.0000    0.0000 C   0  0  0  0  0  0  0  0  0  0  0  0
  1  6  2  0
  2  3  1  0
  2  6  1  0
  2  7  1  0
  3  5  1  0
  4  5  2  0
  4  6  1  0
M  END

> <chembl_id>
CHEMBL3561269

> <chembl_pref_name>
None

$$$$

     RDKit          2D

  9  9  0  0  0  0  0  0  0  0999 V2000
    4.8042   -2.3292    0.0000 C   0  0  0  0  0  0  0  0  0  0  0  0
    5.4042   -2.3292    0.0000 C   0  0  0  0  0  0  0  0  0  0  0  0
    4.2042   -2.3292    0.0000 C   0  0  0  0  0  0  0  0  0  0  0  0
    6.0042   -2.3292    0.0000 C   0  0  0  0  0  0  0  0  0  0  0  0
    3.9042   -1.8167    0.0000 C   0  0  0  0  0  0  0  0  0  0  0  0
    3.9042   -2.8417    0.0000 C   0  0  0  0  0  0  0  0  0  0  0  0
    3.3125   -1.8167    0.0000 C   0  0  0  0  0  0  0  0  0  0  0  0
    3.3125   -2.8417    0.0000 C   0  0  0  0  0  0  0  0  0  0  0  0
    3.0167   -2.3292    0.0000 C   0  0  0  0  0  0  0  0  0  0  0  0
  2  1  3  0
  3  1  1  0
  4  2  1  0
  5  3  1  0
  6  3  2  0
  7  5  2  0
  8  6  1  0
  9  8  2  0
  7  9  1  0
M  END

> <chembl_id>
CHEMBL105998

> <chembl_pref_name>
None

$$$$

     RDKit          2D

 11 11  0  0  0  0  0  0  0  0999 V2000
    7.3277    2.1500    0.0000 C   0  0  0  0  0  0  0  0  0  0  0  0
    7.3266    1.3227    0.0000 C   0  0  0  0  0  0  0  0  0  0  0  0
    8.0414    0.9098    0.0000 C   0  0  0  0  0  0  0  0  0  0  0  0
    8.7578    1.3231    0.0000 C   0  0  0  0  0  0  0  0  0  0  0  0
    8.7550    2.1537    0.0000 C   0  0  0  0  0  0  0  0  0  0  0  0
    8.0396    2.5628    0.0000 C   0  0  0  0  0  0  0  0  0  0  0  0
    9.4679    2.5689    0.0000 C   0  0  0  0  0  0  0  0  0  0  0  0
   10.1839    2.1591    0.0000 C   0  0  0  0  0  0  0  0  0  0  0  0
    9.4648    3.3939    0.0000 O   0  0  0  0  0  0  0  0  0  0  0  0
    6.6138    0.9149    0.0000 C   0  0  0  0  0  0  0  0  0  0  0  0
    5.8990    0.5030    0.0000 N   0  0  0  0  0  0  0  0  0  0  0  0
  5  6  2  0
  6  1  1  0
  1  2  2  0
  5  7  1  0
  3  4  2  0
  7  8  1  0
  7  9  2  0
  4  5  1  0
  2  3  1  0
 10 11  3  0
  2 10  1  0
M  END

> <chembl_id>
CHEMBL255115

> <chembl_pref_name>
None

$$$$

     RDKit          2D

 10 10  0  0  0  0  0  0  0  0999 V2000
    2.0055    0.6579    0.0000 C   0  0  0  0  0  0  0  0  0  0  0  0
    2.0043   -0.1689    0.0000 C   0  0  0  0  0  0  0  0  0  0  0  0
    2.7187   -0.5815    0.0000 C   0  0  0  0  0  0  0  0  0  0  0  0
    3.4346   -0.1684    0.0000 C   0  0  0  0  0  0  0  0  0  0  0  0
    3.4317    0.6615    0.0000 C   0  0  0  0  0  0  0  0  0  0  0  0
    2.7169    1.0704    0.0000 C   0  0  0  0  0  0  0  0  0  0  0  0
    1.2914    1.0700    0.0000 C   0  0  0  0  0  0  0  0  0  0  0  0
    0.5746    1.4823    0.0000 N   0  0  0  0  0  0  0  0  0  0  0  0
    4.1492   -0.5795    0.0000 O   0  0  0  0  0  0  0  0  0  0  0  0
    4.8625   -0.1662    0.0000 C   0  0  0  0  0  0  0  0  0  0  0  0
  2  3  1  0
  5  6  2  0
  6  1  1  0
  1  2  2  0
  1  7  1  0
  3  4  2  0
  7  8  3  0
  4  9  1  0
  4  5  1  0
  9 10  1  0
M  END

> <chembl_id>
CHEMBL482278

> <chembl_pref_name>
None

$$$$

     RDKit          2D

 10 10  0  0  0  0  0  0  0  0999 V2000
    7.9000   -5.4625    0.0000 C   0  0  0  0  0  0  0  0  0  0  0  0
    7.2333   -5.9500    0.0000 C   0  0  0  0  0  0  0  0  0  0  0  0
    8.3125   -6.7333    0.0000 N   0  0  0  0  0  0  0  0  0  0  0  0
    8.5667   -5.9500    0.0000 N   0  0  0  0  0  0  0  0  0  0  0  0
    7.4875   -6.7333    0.0000 N   0  0  0  0  0  0  0  0  0  0  0  0
    7.9000   -4.6375    0.0000 C   0  0  0  0  0  0  0  0  0  0  0  0
    7.1875   -4.2250    0.0000 O   0  0  0  0  0  0  0  0  0  0  0  0
    6.4500   -5.6958    0.0000 O   0  0  0  0  0  0  0  0  0  0  0  0
    8.6167   -4.2250    0.0000 N   0  0  0  0  0  0  0  0  0  0  0  0
    8.6167   -3.4000    0.0000 C   0  0  0  0  0  0  0  0  0  0  0  0
  2  1  2  0
  3  4  2  0
  4  1  1  0
  5  2  1  0
  6  1  1  0
  7  6  2  0
  8  2  1  0
  9  6  1  0
 10  9  1  0
  3  5  1  0
M  END

> <chembl_id>
CHEMBL2009815

> <chembl_pref_name>
None

$$$$

     RDKit          2D

 10 10  0  0  0  0  0  0  0  0999 V2000
    2.7466  -16.8279    0.0000 N   0  0  0  0  0  0  0  0  0  0  0  0
    3.4618  -16.4158    0.0000 C   0  0  0  0  0  0  0  0  0  0  0  0
    4.1770  -16.8279    0.0000 C   0  0  0  0  0  0  0  0  0  0  0  0
    4.8882  -16.4158    0.0000 C   0  0  0  0  0  0  0  0  0  0  0  0
    4.9771  -15.5940    0.0000 C   0  0  0  0  0  0  0  0  0  0  0  0
    5.7824  -15.4218    0.0000 N   0  0  0  0  0  0  0  0  0  0  0  0
    6.1946  -16.1371    0.0000 C   0  0  0  0  0  0  0  0  0  0  0  0
    5.6420  -16.7488    0.0000 N   0  0  0  0  0  0  0  0  0  0  0  0
    3.7594  -17.5394    0.0000 C   0  0  0  0  0  0  0  0  0  0  0  0
    4.5837  -17.5394    0.0000 C   0  0  0  0  0  0  0  0  0  0  0  0
  1  2  1  0
  2  3  1  0
  3  4  1  0
  4  5  2  0
  5  6  1  0
  6  7  2  0
  7  8  1  0
  4  8  1  0
  3  9  1  0
  3 10  1  0
M  END

> <chembl_id>
CHEMBL3305036

> <chembl_pref_name>
None

$$$$

     RDKit          2D

 10 10  0  0  0  0  0  0  0  0999 V2000
    2.9538    1.5263    0.0000 O   0  0  0  0  0  0  0  0  0  0  0  0
    2.9538   -1.7738    0.0000 O   0  0  0  0  0  0  0  0  0  0  0  0
    4.3827   -0.9488    0.0000 N   0  0  0  0  0  0  0  0  0  0  0  0
    3.6682   -0.5363    0.0000 C   0  0  0  0  0  0  0  0  0  0  0  0
    2.9538   -0.9488    0.0000 C   0  0  0  0  0  0  0  0  0  0  0  0
    2.9538    0.7013    0.0000 C   0  0  0  0  0  0  0  0  0  0  0  0
    3.6682    0.2888    0.0000 C   0  0  0  0  0  0  0  0  0  0  0  0
    2.2393   -0.5362    0.0000 C   0  0  0  0  0  0  0  0  0  0  0  0
    2.2393    0.2888    0.0000 C   0  0  0  0  0  0  0  0  0  0  0  0
    2.2393    1.9387    0.0000 C   0  0  0  0  0  0  0  0  0  0  0  0
  1  6  1  0
  1 10  1  0
  2  5  1  0
  3  4  1  0
  4  5  1  0
  4  7  2  0
  5  8  2  0
  6  7  1  0
  6  9  2  0
  8  9  1  0
M  END

> <chembl_id>
CHEMBL1622271

> <chembl_pref_name>
None

$$$$

     RDKit          2D

  9  9  0  0  0  0  0  0  0  0999 V2000
   -2.6235  -11.9891    0.0000 C   0  0  0  0  0  0  0  0  0  0  0  0
   -2.6618  -11.1649    0.0000 C   0  0  0  0  0  0  0  0  0  0  0  0
   -3.3950  -10.7837    0.0000 C   0  0  0  0  0  0  0  0  0  0  0  0
   -3.4334   -9.9596    0.0000 C   0  0  0  0  0  0  0  0  0  0  0  0
   -2.7385   -9.5165    0.0000 C   0  0  0  0  0  0  0  0  0  0  0  0
   -2.0053   -9.8932    0.0000 C   0  0  0  0  0  0  0  0  0  0  0  0
   -1.9670  -10.7173    0.0000 C   0  0  0  0  0  0  0  0  0  0  0  0
   -2.7769   -8.6924    0.0000 O   0  0  0  0  0  0  0  0  0  0  0  0
   -3.3183  -12.4320    0.0000 O   0  0  0  0  0  0  0  0  0  0  0  0
  1  2  1  0
  2  3  1  0
  3  4  2  0
  4  5  1  0
  5  6  2  0
  6  7  1  0
  2  7  2  0
  5  8  1  0
  1  9  1  0
M  END

> <chembl_id>
CHEMBL202132

> <chembl_pref_name>
PARAHYDROXYBENZYL ALCOHOL

$$$$

     RDKit          2D

 11 11  0  0  0  0  0  0  0  0999 V2000
    2.5951   -3.0039    0.0000 C   0  0  0  0  0  0  0  0  0  0  0  0
    2.5973   -1.5031    0.0000 N   0  0  0  0  0  0  0  0  0  0  0  0
    3.6331   -3.6060    0.0000 N   0  0  0  0  0  0  0  0  0  0  0  0
    1.2990   -0.7500    0.0000 C   0  0  0  0  0  0  0  0  0  0  0  0
   -1.2990    0.7500    0.0000 C   0  0  0  0  0  0  0  0  0  0  0  0
   -2.3383    1.3500    0.0000 N   0  0  0  0  0  0  0  0  0  0  0  0
    1.2990    0.7500    0.0000 C   0  0  0  0  0  0  0  0  0  0  0  0
    0.0000   -1.5000    0.0000 C   0  0  0  0  0  0  0  0  0  0  0  0
    0.0000    1.5000    0.0000 C   0  0  0  0  0  0  0  0  0  0  0  0
   -1.2990   -0.7500    0.0000 C   0  0  0  0  0  0  0  0  0  0  0  0
    1.5548   -3.6021    0.0000 C   0  0  0  0  0  0  0  0  0  0  0  0
  1  2  1  0
  1  3  2  0
  2  4  1  0
  5  6  1  0
  4  7  2  0
  4  8  1  0
  5  9  2  0
  7  9  1  0
  5 10  1  0
  8 10  2  0
  1 11  1  0
M  END

> <chembl_id>
CHEMBL1191345

> <chembl_pref_name>
None

$$$$

     RDKit          2D

  9  9  0  0  0  0  0  0  0  0999 V2000
   13.8100  -16.5519    0.0000 C   0  0  0  0  0  0  0  0  0  0  0  0
   14.6354  -16.5530    0.0000 C   0  0  0  0  0  0  0  0  0  0  0  0
   15.0471  -15.8400    0.0000 C   0  0  0  0  0  0  0  0  0  0  0  0
   14.6349  -15.1253    0.0000 C   0  0  0  0  0  0  0  0  0  0  0  0
   13.8064  -15.1282    0.0000 C   0  0  0  0  0  0  0  0  0  0  0  0
   13.3983  -15.8418    0.0000 C   0  0  0  0  0  0  0  0  0  0  0  0
   13.3901  -14.4134    0.0000 O   0  0  0  0  0  0  0  0  0  0  0  0
   15.0484  -17.2696    0.0000 F   0  0  0  0  0  0  0  0  0  0  0  0
   12.5713  -15.8443    0.0000 N   0  0  0  0  0  0  0  0  0  0  0  0
  4  5  1  0
  2  3  1  0
  5  6  2  0
  6  1  1  0
  1  2  2  0
  5  7  1  0
  3  4  2  0
  2  8  1  0
  6  9  1  0
M  END

> <chembl_id>
CHEMBL1650250

> <chembl_pref_name>
None

$$$$

     RDKit          2D

 10 10  0  0  0  0  0  0  0  0999 V2000
   33.9781   -2.6662    0.0000 C   0  0  0  0  0  0  0  0  0  0  0  0
   33.9769   -3.4857    0.0000 C   0  0  0  0  0  0  0  0  0  0  0  0
   34.6850   -3.8947    0.0000 N   0  0  0  0  0  0  0  0  0  0  0  0
   35.3946   -3.4852    0.0000 C   0  0  0  0  0  0  0  0  0  0  0  0
   35.3918   -2.6626    0.0000 C   0  0  0  0  0  0  0  0  0  0  0  0
   34.6832   -2.2573    0.0000 C   0  0  0  0  0  0  0  0  0  0  0  0
   34.6807   -1.4401    0.0000 C   0  0  0  0  0  0  0  0  0  0  0  0
   35.3872   -1.0294    0.0000 C   0  0  0  0  0  0  0  0  0  0  0  0
   35.3848   -0.2122    0.0000 C   0  0  0  0  0  0  0  0  0  0  0  0
   36.0913    0.1985    0.0000 O   0  0  0  0  0  0  0  0  0  0  0  0
  1  2  2  0
  2  3  1  0
  3  4  2  0
  4  5  1  0
  5  6  2  0
  6  1  1  0
  6  7  1  0
  7  8  1  0
  8  9  1  0
  9 10  1  0
M  END

> <chembl_id>
CHEMBL3229432

> <chembl_pref_name>
None

$$$$

     RDKit          2D

 10 10  0  0  0  0  0  0  0  0999 V2000
    5.8542   -2.6042    0.0000 N   0  0  0  0  0  0  0  0  0  0  0  0
    5.1417   -2.1917    0.0000 C   0  0  0  0  0  0  0  0  0  0  0  0
    5.1417   -1.3667    0.0000 C   0  0  0  0  0  0  0  0  0  0  0  0
    4.4292   -2.6042    0.0000 N   0  0  0  0  0  0  0  0  0  0  0  0
    6.5750   -2.1917    0.0000 C   0  0  0  0  0  0  0  0  0  0  0  0
    5.8542   -0.9542    0.0000 C   0  0  0  0  0  0  0  0  0  0  0  0
    6.5750   -1.3667    0.0000 C   0  0  0  0  0  0  0  0  0  0  0  0
    5.8542   -0.1292    0.0000 C   0  0  0  0  0  0  0  0  0  0  0  0
    6.5667    0.2833    0.0000 C   0  0  0  0  0  0  0  0  0  0  0  0
    6.5667    1.1083    0.0000 C   0  0  0  0  0  0  0  0  0  0  0  0
  2  1  1  0
  3  2  2  0
  4  2  1  0
  5  1  2  0
  6  7  2  0
  7  5  1  0
  8  6  1  0
  9  8  1  0
 10  9  1  0
  3  6  1  0
M  END

> <chembl_id>
CHEMBL59235

> <chembl_pref_name>
None

$$$$

     RDKit          2D

 11 11  0  0  0  0  0  0  0  0999 V2000
   15.4887  -11.7707    0.0000 C   0  0  0  0  0  0  0  0  0  0  0  0
   15.4875  -12.5977    0.0000 C   0  0  0  0  0  0  0  0  0  0  0  0
   16.2021  -13.0104    0.0000 C   0  0  0  0  0  0  0  0  0  0  0  0
   16.9183  -12.5973    0.0000 C   0  0  0  0  0  0  0  0  0  0  0  0
   16.9154  -11.7670    0.0000 C   0  0  0  0  0  0  0  0  0  0  0  0
   16.2003  -11.3580    0.0000 C   0  0  0  0  0  0  0  0  0  0  0  0
   14.7730  -13.0095    0.0000 C   0  0  0  0  0  0  0  0  0  0  0  0
   14.0591  -12.5966    0.0000 N   0  0  0  0  0  0  0  0  0  0  0  0
   14.7724  -13.8342    0.0000 O   0  0  0  0  0  0  0  0  0  0  0  0
   14.0598  -11.7719    0.0000 C   0  0  0  0  0  0  0  0  0  0  0  0
   13.3446  -13.0083    0.0000 C   0  0  0  0  0  0  0  0  0  0  0  0
  5  6  2  0
  6  1  1  0
  1  2  2  0
  2  7  1  0
  3  4  2  0
  7  8  1  0
  7  9  2  0
  4  5  1  0
  8 10  1  0
  2  3  1  0
  8 11  1  0
M  END

> <chembl_id>
CHEMBL453210

> <chembl_pref_name>
None

$$$$

     RDKit          2D

 10 10  0  0  0  0  0  0  0  0999 V2000
    0.7382    4.0776    0.0000 O   0  0  0  0  0  0  0  0  0  0  0  0
    2.1265    3.4090    0.0000 O   0  0  0  0  0  0  0  0  0  0  0  0
    0.7382    3.2526    0.0000 C   0  0  0  0  0  0  0  0  0  0  0  0
    1.4815    2.8946    0.0000 C   0  0  0  0  0  0  0  0  0  0  0  0
   -0.0051    2.8946    0.0000 C   0  0  0  0  0  0  0  0  0  0  0  0
   -0.1887    2.0903    0.0000 C   0  0  0  0  0  0  0  0  0  0  0  0
    1.6651    2.0903    0.0000 C   0  0  0  0  0  0  0  0  0  0  0  0
    0.3257    1.4453    0.0000 C   0  0  0  0  0  0  0  0  0  0  0  0
    1.1507    1.4453    0.0000 C   0  0  0  0  0  0  0  0  0  0  0  0
   -0.9930    1.9067    0.0000 C   0  0  0  0  0  0  0  0  0  0  0  0
  1  3  2  0
  2  4  1  0
  3  4  1  0
  3  5  1  0
  4  7  2  0
  5  6  2  0
  6  8  1  0
  6 10  1  0
  7  9  1  0
  8  9  2  0
M  END

> <chembl_id>
CHEMBL1987832

> <chembl_pref_name>
None

$$$$

     RDKit          2D

  8  8  0  0  0  0  0  0  0  0999 V2000
    4.7042   -2.9167    0.0000 C   0  0  0  0  0  0  0  0  0  0  0  0
    5.4167   -3.3292    0.0000 N   0  0  0  0  0  0  0  0  0  0  0  0
    4.7042   -2.0875    0.0000 C   0  0  0  0  0  0  0  0  0  0  0  0
    3.9875   -3.3292    0.0000 N   0  0  0  0  0  0  0  0  0  0  0  0
    6.1292   -2.9167    0.0000 C   0  0  0  0  0  0  0  0  0  0  0  0
    3.9917   -1.6792    0.0000 C   0  0  0  0  0  0  0  0  0  0  0  0
    5.4167   -1.6750    0.0000 C   0  0  0  0  0  0  0  0  0  0  0  0
    6.1292   -2.0875    0.0000 C   0  0  0  0  0  0  0  0  0  0  0  0
  2  1  1  0
  3  1  2  0
  4  1  1  0
  5  2  2  0
  6  3  1  0
  7  3  1  0
  8  7  2  0
  5  8  1  0
M  END

> <chembl_id>
CHEMBL291544

> <chembl_pref_name>
None

$$$$

     RDKit          2D

 11 11  0  0  0  0  0  0  0  0999 V2000
   20.4407  -11.2632    0.0000 C   0  0  0  0  0  0  0  0  0  0  0  0
   20.4396  -12.0827    0.0000 C   0  0  0  0  0  0  0  0  0  0  0  0
   21.1476  -12.4917    0.0000 C   0  0  0  0  0  0  0  0  0  0  0  0
   21.8573  -12.0822    0.0000 C   0  0  0  0  0  0  0  0  0  0  0  0
   21.8545  -11.2596    0.0000 C   0  0  0  0  0  0  0  0  0  0  0  0
   21.1459  -10.8543    0.0000 C   0  0  0  0  0  0  0  0  0  0  0  0
   22.5657  -12.4897    0.0000 C   0  0  0  0  0  0  0  0  0  0  0  0
   23.2727  -12.0800    0.0000 C   0  0  0  0  0  0  0  0  0  0  0  0
   23.2714  -11.2628    0.0000 C   0  0  0  0  0  0  0  0  0  0  0  0
   23.9785  -10.8531    0.0000 N   0  0  0  0  0  0  0  0  0  0  0  0
   22.5631  -10.8553    0.0000 C   0  0  0  0  0  0  0  0  0  0  0  0
  1  2  2  0
  2  3  1  0
  3  4  2  0
  4  5  1  0
  5  6  2  0
  6  1  1  0
  4  7  1  0
  7  8  2  0
  8  9  1  0
  9 10  1  0
  9 11  1  0
M  END

> <chembl_id>
CHEMBL3965276

> <chembl_pref_name>
None

$$$$

     RDKit          2D

 11 12  0  0  0  0  0  0  0  0999 V2000
   33.9011  -13.2030    0.0000 C   0  0  0  0  0  0  0  0  0  0  0  0
   33.9011  -14.0202    0.0000 N   0  0  0  0  0  0  0  0  0  0  0  0
   34.6063  -14.4247    0.0000 C   0  0  0  0  0  0  0  0  0  0  0  0
   34.6063  -12.7903    0.0000 C   0  0  0  0  0  0  0  0  0  0  0  0
   35.3116  -13.2030    0.0000 C   0  0  0  0  0  0  0  0  0  0  0  0
   35.3100  -14.0184    0.0000 C   0  0  0  0  0  0  0  0  0  0  0  0
   36.0142  -14.4257    0.0000 C   0  0  0  0  0  0  0  0  0  0  0  0
   36.7205  -14.0187    0.0000 N   0  0  0  0  0  0  0  0  0  0  0  0
   36.7182  -13.2002    0.0000 C   0  0  0  0  0  0  0  0  0  0  0  0
   36.0134  -12.7966    0.0000 N   0  0  0  0  0  0  0  0  0  0  0  0
   33.1939  -14.4298    0.0000 C   0  0  0  0  0  0  0  0  0  0  0  0
  1  2  1  0
  1  4  1  0
  2  3  1  0
  3  6  1  0
  5  4  1  0
  5  6  2  0
  6  7  1  0
  7  8  2  0
  8  9  1  0
  9 10  2  0
 10  5  1  0
  2 11  1  0
M  END

> <chembl_id>
CHEMBL3251560

> <chembl_pref_name>
None

$$$$

     RDKit          2D

 10 11  0  0  0  0  0  0  0  0999 V2000
    0.6040  -13.1323    0.0000 C   0  0  0  0  0  0  0  0  0  0  0  0
    0.6029  -13.9614    0.0000 C   0  0  0  0  0  0  0  0  0  0  0  0
    1.3192  -14.3752    0.0000 N   0  0  0  0  0  0  0  0  0  0  0  0
    2.0372  -13.9609    0.0000 C   0  0  0  0  0  0  0  0  0  0  0  0
    1.3174  -12.7187    0.0000 C   0  0  0  0  0  0  0  0  0  0  0  0
    2.0338  -13.1278    0.0000 C   0  0  0  0  0  0  0  0  0  0  0  0
    2.6443  -12.5729    0.0000 C   0  0  0  0  0  0  0  0  0  0  0  0
    2.3052  -11.8208    0.0000 N   0  0  0  0  0  0  0  0  0  0  0  0
    1.4852  -11.9109    0.0000 C   0  0  0  0  0  0  0  0  0  0  0  0
    3.4538  -12.7410    0.0000 O   0  0  0  0  0  0  0  0  0  0  0  0
  5  6  2  0
  2  3  1  0
  1  2  2  0
  3  4  2  0
  4  6  1  0
  6  7  1  0
  7  8  1  0
  8  9  1  0
  9  5  1  0
  5  1  1  0
  7 10  2  0
M  END

> <chembl_id>
CHEMBL2064705

> <chembl_pref_name>
None

$$$$

     RDKit          2D

  8  8  0  0  0  0  0  0  0  0999 V2000
    0.9512   -1.4426    0.0000 N   0  0  0  0  0  0  0  0  0  0  0  0
    0.9000   -0.4438    0.0000 C   0  0  0  0  0  0  0  0  0  0  0  0
    1.7392    0.0998    0.0000 O   0  0  0  0  0  0  0  0  0  0  0  0
    0.0096    0.0112    0.0000 C   0  0  0  0  0  0  0  0  0  0  0  0
   -0.1456    0.9990    0.0000 C   0  0  0  0  0  0  0  0  0  0  0  0
   -1.1332    1.1568    0.0000 C   0  0  0  0  0  0  0  0  0  0  0  0
   -1.5882    0.2662    0.0000 O   0  0  0  0  0  0  0  0  0  0  0  0
   -0.8820   -0.4416    0.0000 N   0  0  0  0  0  0  0  0  0  0  0  0
  1  2  1  0
  2  3  2  0
  2  4  1  0
  4  5  1  0
  5  6  2  0
  6  7  1  0
  7  8  1  0
  8  4  2  0
M  END

> <chembl_id>
CHEMBL4538951

> <chembl_pref_name>
None

$$$$

     RDKit          2D

 11 12  0  0  0  0  0  0  0  0999 V2000
   -1.7354    1.4134    0.0000 N   0  0  0  0  0  0  0  0  0  0  0  0
   -1.4258    0.4626    0.0000 C   0  0  0  0  0  0  0  0  0  0  0  0
   -0.4744    0.1544    0.0000 C   0  0  0  0  0  0  0  0  0  0  0  0
    0.3912    0.6550    0.0000 C   0  0  0  0  0  0  0  0  0  0  0  0
    1.2576    0.1558    0.0000 C   0  0  0  0  0  0  0  0  0  0  0  0
    1.2584   -0.8442    0.0000 C   0  0  0  0  0  0  0  0  0  0  0  0
    0.3928   -1.3450    0.0000 C   0  0  0  0  0  0  0  0  0  0  0  0
   -0.4736   -0.8456    0.0000 C   0  0  0  0  0  0  0  0  0  0  0  0
   -1.4244   -1.1554    0.0000 C   0  0  0  0  0  0  0  0  0  0  0  0
   -2.0128   -0.3468    0.0000 C   0  0  0  0  0  0  0  0  0  0  0  0
   -3.0128   -0.3476    0.0000 O   0  0  0  0  0  0  0  0  0  0  0  0
  2  1  1  6
  2  3  1  0
  3  4  2  0
  4  5  1  0
  5  6  2  0
  6  7  1  0
  7  8  2  0
  8  9  1  0
  9 10  1  0
 10 11  1  6
 10  2  1  0
  8  3  1  0
M  END

> <chembl_id>
CHEMBL4546964

> <chembl_pref_name>
None

$$$$

     RDKit          2D

 10 10  0  0  0  0  0  0  0  0999 V2000
    5.4364  -25.9153    0.0000 C   0  0  0  0  0  0  0  0  0  0  0  0
    6.1530  -26.3241    0.0000 C   0  0  0  0  0  0  0  0  0  0  0  0
    6.8632  -25.9079    0.0000 C   0  0  0  0  0  0  0  0  0  0  0  0
    6.8579  -25.0831    0.0000 C   0  0  0  0  0  0  0  0  0  0  0  0
    6.1365  -24.6762    0.0000 C   0  0  0  0  0  0  0  0  0  0  0  0
    5.4294  -25.0948    0.0000 C   0  0  0  0  0  0  0  0  0  0  0  0
    6.1279  -23.8457    0.0000 C   0  0  0  0  0  0  0  0  0  0  0  0
    7.5852  -26.3185    0.0000 C   0  0  0  0  0  0  0  0  0  0  0  0
    7.5739  -24.6619    0.0000 N   0  0  0  0  0  0  0  0  0  0  0  0
    8.2966  -25.0712    0.0000 O   0  0  0  0  0  0  0  0  0  0  0  0
  1  2  2  0
  2  3  1  0
  3  4  2  0
  4  5  1  0
  5  6  2  0
  6  1  1  0
  5  7  1  0
  3  8  1  0
  4  9  1  0
  9 10  1  0
M  END

> <chembl_id>
CHEMBL3278068

> <chembl_pref_name>
None

$$$$

     RDKit          2D

 10 11  0  0  0  0  0  0  0  0999 V2000
   -2.5620   -1.3370    0.0000 N   0  0  0  0  0  0  0  0  0  0  0  0
   -1.6964   -0.8364    0.0000 C   0  0  0  0  0  0  0  0  0  0  0  0
   -1.6972    0.1636    0.0000 C   0  0  0  0  0  0  0  0  0  0  0  0
   -0.8316    0.6644    0.0000 C   0  0  0  0  0  0  0  0  0  0  0  0
    0.0348    0.1650    0.0000 C   0  0  0  0  0  0  0  0  0  0  0  0
    0.9856    0.4748    0.0000 N   0  0  0  0  0  0  0  0  0  0  0  0
    1.5740   -0.3338    0.0000 C   0  0  0  0  0  0  0  0  0  0  0  0
    0.9868   -1.1432    0.0000 C   0  0  0  0  0  0  0  0  0  0  0  0
    0.0356   -0.8350    0.0000 N   0  0  0  0  0  0  0  0  0  0  0  0
   -0.8300   -1.3356    0.0000 C   0  0  0  0  0  0  0  0  0  0  0  0
  1  2  1  0
  2  3  1  0
  3  4  1  0
  4  5  1  0
  5  6  2  0
  6  7  1  0
  7  8  2  0
  8  9  1  0
  9 10  1  0
 10  2  1  0
  9  5  1  0
M  END

> <chembl_id>
CHEMBL4551520

> <chembl_pref_name>
None

$$$$

     RDKit          2D

  7  7  0  0  0  0  0  0  0  0999 V2000
    1.4553   -2.0031    0.0000 C   0  0  0  0  0  0  0  0  0  0  0  0
    0.7500   -1.0323    0.0000 C   0  0  0  0  0  0  0  0  0  0  0  0
    1.2135    0.3943    0.0000 C   0  0  0  0  0  0  0  0  0  0  0  0
    0.0000    1.2760    0.0000 C   0  0  0  0  0  0  0  0  0  0  0  0
   -1.2135    0.3943    0.0000 C   0  0  0  0  0  0  0  0  0  0  0  0
   -2.3548    0.7651    0.0000 C   0  0  0  0  0  0  0  0  0  0  0  0
   -0.7500   -1.0323    0.0000 N   0  0  0  0  0  0  0  0  0  0  0  0
  1  2  1  0
  2  3  2  0
  3  4  1  0
  4  5  2  0
  5  6  1  0
  5  7  1  0
  7  2  1  0
M  END

> <chembl_id>
CHEMBL3901947

> <chembl_pref_name>
None

$$$$
 
     RDKit          2D

 10 10  0  0  0  0  0  0  0  0999 V2000
   21.6027   -7.9082    0.0000 C   0  0  0  0  0  0  0  0  0  0  0  0
   21.6015   -8.7357    0.0000 C   0  0  0  0  0  0  0  0  0  0  0  0
   22.3164   -9.1485    0.0000 C   0  0  0  0  0  0  0  0  0  0  0  0
   23.0328   -8.7352    0.0000 C   0  0  0  0  0  0  0  0  0  0  0  0
   23.0299   -7.9046    0.0000 C   0  0  0  0  0  0  0  0  0  0  0  0
   22.3146   -7.4955    0.0000 C   0  0  0  0  0  0  0  0  0  0  0  0
   23.7429   -7.4895    0.0000 C   0  0  0  0  0  0  0  0  0  0  0  0
   24.4589   -7.8993    0.0000 C   0  0  0  0  0  0  0  0  0  0  0  0
   25.1718   -7.4841    0.0000 N   0  0  0  0  0  0  0  0  0  0  0  0
   25.8878   -7.8939    0.0000 O   0  0  0  0  0  0  0  0  0  0  0  0
  1  2  2  0
  2  3  1  0
  3  4  2  0
  4  5  1  0
  5  6  2  0
  6  1  1  0
  5  7  1  0
  7  8  1  0
  8  9  1  0
  9 10  1  0
M  END

> <chembl_id>
CHEMBL4526377

> <chembl_pref_name>
None

$$$$

     RDKit          2D

 11 12  0  0  0  0  0  0  0  0999 V2000
   -3.4958   -0.1167    0.0000 C   0  0  0  0  0  0  0  0  0  0  0  0
   -3.4083    0.4833    0.0000 N   0  0  0  0  0  0  0  0  0  0  0  0
   -4.0208   -0.4167    0.0000 C   0  0  0  0  0  0  0  0  0  0  0  0
   -2.9583   -0.3792    0.0000 N   0  0  0  0  0  0  0  0  0  0  0  0
   -4.5458   -1.3167    0.0000 N   0  0  0  0  0  0  0  0  0  0  0  0
   -4.0208   -1.0250    0.0000 C   0  0  0  0  0  0  0  0  0  0  0  0
   -2.8208    0.5833    0.0000 C   0  0  0  0  0  0  0  0  0  0  0  0
   -4.5458   -0.1167    0.0000 C   0  0  0  0  0  0  0  0  0  0  0  0
   -2.5458    0.0583    0.0000 C   0  0  0  0  0  0  0  0  0  0  0  0
   -5.0583   -1.0167    0.0000 C   0  0  0  0  0  0  0  0  0  0  0  0
   -5.0583   -0.4167    0.0000 C   0  0  0  0  0  0  0  0  0  0  0  0
  2  1  2  0
  3  1  1  0
  4  1  1  0
  5  6  2  0
  6  3  1  0
  7  2  1  0
  8  3  2  0
  9  4  1  0
 10 11  2  0
 11  8  1  0
  9  7  1  0
 10  5  1  0
M  END

> <chembl_id>
CHEMBL14049

> <chembl_pref_name>
None

$$$$

     RDKit          2D

  9  9  0  0  0  0  0  0  0  0999 V2000
   18.6448  -20.0546    0.0000 C   0  0  0  0  0  0  0  0  0  0  0  0
   18.6437  -20.8820    0.0000 C   0  0  0  0  0  0  0  0  0  0  0  0
   19.3585  -21.2948    0.0000 N   0  0  0  0  0  0  0  0  0  0  0  0
   20.0750  -20.8815    0.0000 C   0  0  0  0  0  0  0  0  0  0  0  0
   20.0721  -20.0509    0.0000 C   0  0  0  0  0  0  0  0  0  0  0  0
   19.3566  -19.6419    0.0000 C   0  0  0  0  0  0  0  0  0  0  0  0
   20.7850  -19.6358    0.0000 O   0  0  0  0  0  0  0  0  0  0  0  0
   17.9289  -21.2939    0.0000 Cl  0  0  0  0  0  0  0  0  0  0  0  0
   17.9302  -19.6423    0.0000 C   0  0  0  0  0  0  0  0  0  0  0  0
  1  2  2  0
  2  3  1  0
  3  4  2  0
  4  5  1  0
  5  6  2  0
  6  1  1  0
  5  7  1  0
  2  8  1  0
  1  9  1  0
M  END

> <chembl_id>
CHEMBL3236919

> <chembl_pref_name>
None

$$$$

     RDKit          2D

  8  8  0  0  0  0  0  0  0  0999 V2000
   -0.6179   -0.2290    0.0000 C   0  0  0  0  0  0  0  0  0  0  0  0
   -0.6191   -1.0559    0.0000 C   0  0  0  0  0  0  0  0  0  0  0  0
    0.0956   -1.4687    0.0000 N   0  0  0  0  0  0  0  0  0  0  0  0
    0.8115   -1.0554    0.0000 C   0  0  0  0  0  0  0  0  0  0  0  0
    0.8086   -0.2254    0.0000 C   0  0  0  0  0  0  0  0  0  0  0  0
    0.0938    0.1835    0.0000 C   0  0  0  0  0  0  0  0  0  0  0  0
    1.5264   -1.4667    0.0000 N   0  0  0  0  0  0  0  0  0  0  0  0
    2.2397   -1.0532    0.0000 O   0  0  0  0  0  0  0  0  0  0  0  0
  4  5  1  0
  2  3  1  0
  5  6  2  0
  6  1  1  0
  1  2  2  0
  4  7  1  0
  3  4  2  0
  7  8  2  0
M  END

> <chembl_id>
CHEMBL1916779

> <chembl_pref_name>
None

$$$$

     RDKit          2D

  9  9  0  0  0  0  0  0  0  0999 V2000
   -3.0858   -2.9698    0.0000 O   0  0  0  0  0  0  0  0  0  0  0  0
   -0.9895   -0.0099    0.0000 O   0  0  0  0  0  0  0  0  0  0  0  0
   -2.4184   -2.4849    0.0000 C   0  0  0  0  0  0  0  0  0  0  0  0
   -1.7510   -2.9698    0.0000 C   0  0  0  0  0  0  0  0  0  0  0  0
   -2.4184   -1.6599    0.0000 C   0  0  0  0  0  0  0  0  0  0  0  0
   -2.8309   -3.7544    0.0000 C   0  0  0  0  0  0  0  0  0  0  0  0
   -2.0059   -3.7544    0.0000 C   0  0  0  0  0  0  0  0  0  0  0  0
   -1.7039   -1.2474    0.0000 C   0  0  0  0  0  0  0  0  0  0  0  0
   -1.7039   -0.4224    0.0000 C   0  0  0  0  0  0  0  0  0  0  0  0
  1  3  1  0
  1  6  1  0
  2  9  2  0
  3  4  2  0
  3  5  1  0
  4  7  1  0
  5  8  2  0
  6  7  2  0
  8  9  1  0
M  END

> <chembl_id>
CHEMBL1994615

> <chembl_pref_name>
None

$$$$

     RDKit          2D

  9  9  0  0  0  0  0  0  0  0999 V2000
    2.7375   -0.3042    0.0000 C   0  0  0  0  0  0  0  0  0  0  0  0
    3.9792    0.4083    0.0000 C   0  0  0  0  0  0  0  0  0  0  0  0
    3.9792   -1.0167    0.0000 C   0  0  0  0  0  0  0  0  0  0  0  0
    3.1500    0.4083    0.0000 C   0  0  0  0  0  0  0  0  0  0  0  0
    3.1500   -1.0167    0.0000 C   0  0  0  0  0  0  0  0  0  0  0  0
    4.3917   -0.3042    0.0000 C   0  0  0  0  0  0  0  0  0  0  0  0
    1.9125   -0.3042    0.0000 O   0  0  0  0  0  0  0  0  0  0  0  0
    4.4000    1.1333    0.0000 C   0  0  0  0  0  0  0  0  0  0  0  0
    4.4000   -1.7417    0.0000 C   0  0  0  0  0  0  0  0  0  0  0  0
  2  4  2  0
  3  5  1  0
  4  1  1  0
  5  1  2  0
  6  3  2  0
  7  1  1  0
  8  2  1  0
  9  3  1  0
  2  6  1  0
M  END

> <chembl_id>
CHEMBL191740

> <chembl_pref_name>
None

$$$$

     RDKit          2D

  9  9  0  0  0  0  0  0  0  0999 V2000
   11.5397   -2.1957    0.0000 C   0  0  0  0  0  0  0  0  0  0  0  0
   11.5397   -3.0129    0.0000 C   0  0  0  0  0  0  0  0  0  0  0  0
   12.2450   -3.4173    0.0000 N   0  0  0  0  0  0  0  0  0  0  0  0
   12.9503   -3.0129    0.0000 C   0  0  0  0  0  0  0  0  0  0  0  0
   12.9503   -2.1957    0.0000 C   0  0  0  0  0  0  0  0  0  0  0  0
   12.2450   -1.7830    0.0000 C   0  0  0  0  0  0  0  0  0  0  0  0
   13.6574   -3.4225    0.0000 O   0  0  0  0  0  0  0  0  0  0  0  0
   13.6592   -1.7892    0.0000 O   0  0  0  0  0  0  0  0  0  0  0  0
   10.8308   -1.7892    0.0000 Cl  0  0  0  0  0  0  0  0  0  0  0  0
  1  2  2  0
  1  6  1  0
  2  3  1  0
  3  4  1  0
  4  5  1  0
  5  6  2  0
  4  7  2  0
  5  8  1  0
  1  9  1  0
M  END

> <chembl_id>
CHEMBL2338783

> <chembl_pref_name>
None

$$$$

     RDKit          2D

 10 10  0  0  0  0  0  0  0  0999 V2000
   26.4027   -9.1250    0.0000 C   0  0  0  0  0  0  0  0  0  0  0  0
   26.4016   -9.9523    0.0000 C   0  0  0  0  0  0  0  0  0  0  0  0
   27.1164  -10.3652    0.0000 C   0  0  0  0  0  0  0  0  0  0  0  0
   27.8328   -9.9519    0.0000 C   0  0  0  0  0  0  0  0  0  0  0  0
   27.8300   -9.1213    0.0000 C   0  0  0  0  0  0  0  0  0  0  0  0
   27.1146   -8.7122    0.0000 C   0  0  0  0  0  0  0  0  0  0  0  0
   27.1162  -11.1902    0.0000 O   0  0  0  0  0  0  0  0  0  0  0  0
   28.5429   -8.7061    0.0000 C   0  0  0  0  0  0  0  0  0  0  0  0
   28.5398   -7.8811    0.0000 N   0  0  0  0  0  0  0  0  0  0  0  0
   29.2527   -7.4660    0.0000 N   0  0  0  0  0  0  0  0  0  0  0  0
  6  1  1  0
  3  7  1  0
  2  3  1  0
  5  8  1  0
  8  9  1  0
  3  4  2  0
  9 10  1  0
  4  5  1  0
  1  2  2  0
  5  6  2  0
M  END

> <chembl_id>
CHEMBL352205

> <chembl_pref_name>
3-HYDROXYBENZYLHYDRAZINE DIHYDROCHLORIDE

$$$$

     RDKit          2D

 10 11  0  0  1  0  0  0  0  0999 V2000
    1.8358   -2.2219    0.0000 N   0  0  0  0  0  0  0  0  0  0  0  0
    0.7088   -1.0949    0.0000 C   0  0  0  0  0  0  0  0  0  0  0  0
    1.1213   -1.8094    0.0000 C   0  0  0  0  0  0  0  0  0  0  0  0
    0.2963   -1.8094    0.0000 C   0  0  0  0  0  0  0  0  0  0  0  0
    0.7088   -0.2699    0.0000 C   0  0  0  0  0  0  0  0  0  0  0  0
   -0.0057    0.1426    0.0000 C   0  0  0  0  0  0  0  0  0  0  0  0
    1.4233    0.1426    0.0000 C   0  0  0  0  0  0  0  0  0  0  0  0
   -0.0057    0.9676    0.0000 C   0  0  0  0  0  0  0  0  0  0  0  0
    1.4233    0.9676    0.0000 C   0  0  0  0  0  0  0  0  0  0  0  0
    0.7088    1.3801    0.0000 C   0  0  0  0  0  0  0  0  0  0  0  0
  3  1  1  1
  2  3  1  0
  2  4  1  0
  2  5  1  1
  3  4  1  0
  5  6  2  0
  5  7  1  0
  6  8  1  0
  7  9  2  0
  8 10  2  0
  9 10  1  0
M  END

> <chembl_id>
CHEMBL1476329

> <chembl_pref_name>
None

$$$$

     RDKit          2D

  7  7  0  0  0  0  0  0  0  0999 V2000
   -3.6327   -4.4542    0.0000 C   0  0  0  0  0  0  0  0  0  0  0  0
   -3.6327   -5.2796    0.0000 C   0  0  0  0  0  0  0  0  0  0  0  0
   -2.9206   -5.6884    0.0000 N   0  0  0  0  0  0  0  0  0  0  0  0
   -2.2086   -5.2796    0.0000 C   0  0  0  0  0  0  0  0  0  0  0  0
   -2.2086   -4.4542    0.0000 C   0  0  0  0  0  0  0  0  0  0  0  0
   -2.9206   -4.0376    0.0000 C   0  0  0  0  0  0  0  0  0  0  0  0
   -2.9206   -3.2122    0.0000 S   0  0  0  0  0  0  0  0  0  0  0  0
  1  2  2  0
  1  6  1  0
  2  3  1  0
  3  4  2  0
  4  5  1  0
  5  6  2  0
  6  7  1  0
M  END

> <chembl_id>
CHEMBL1688955

> <chembl_pref_name>
4-MERCAPTOPYRIDINE

$$$$

     RDKit          2D

  9  9  0  0  0  0  0  0  0  0999 V2000
   20.3295   -3.1094    0.0000 C   0  0  0  0  0  0  0  0  0  0  0  0
   19.6204   -2.7008    0.0000 C   0  0  0  0  0  0  0  0  0  0  0  0
   18.9113   -3.1094    0.0000 C   0  0  0  0  0  0  0  0  0  0  0  0
   18.2063   -2.7008    0.0000 C   0  0  0  0  0  0  0  0  0  0  0  0
   18.2063   -1.8836    0.0000 C   0  0  0  0  0  0  0  0  0  0  0  0
   18.9113   -1.4750    0.0000 C   0  0  0  0  0  0  0  0  0  0  0  0
   19.6204   -1.8836    0.0000 C   0  0  0  0  0  0  0  0  0  0  0  0
   21.0344   -2.7008    0.0000 O   0  0  0  0  0  0  0  0  0  0  0  0
   17.4972   -3.1094    0.0000 N   0  0  0  0  0  0  0  0  0  0  0  0
  1  2  1  0
  2  3  1  0
  3  4  2  0
  4  5  1  0
  5  6  2  0
  6  7  1  0
  2  7  2  0
  1  8  2  0
  4  9  1  0
M  END

> <chembl_id>
CHEMBL3884023

> <chembl_pref_name>
None

$$$$

     RDKit          2D

 10 10  0  0  0  0  0  0  0  0999 V2000
   32.0191  -20.9798    0.0000 C   0  0  0  0  0  0  0  0  0  0  0  0
   32.0180  -21.8071    0.0000 C   0  0  0  0  0  0  0  0  0  0  0  0
   32.7324  -22.2199    0.0000 N   0  0  0  0  0  0  0  0  0  0  0  0
   33.4482  -21.8066    0.0000 C   0  0  0  0  0  0  0  0  0  0  0  0
   33.4455  -20.9764    0.0000 C   0  0  0  0  0  0  0  0  0  0  0  0
   32.7307  -20.5670    0.0000 C   0  0  0  0  0  0  0  0  0  0  0  0
   32.7284  -19.7420    0.0000 C   0  0  0  0  0  0  0  0  0  0  0  0
   33.4416  -19.3275    0.0000 C   0  0  0  0  0  0  0  0  0  0  0  0
   34.1587  -19.7348    0.0000 O   0  0  0  0  0  0  0  0  0  0  0  0
   33.4407  -18.4992    0.0000 O   0  0  0  0  0  0  0  0  0  0  0  0
  2  3  1  0
  5  6  2  0
  6  1  1  0
  1  2  2  0
  6  7  1  0
  3  4  2  0
  7  8  1  0
  4  5  1  0
  8  9  1  0
  8 10  2  0
M  END

> <chembl_id>
CHEMBL1801805

> <chembl_pref_name>
None

$$$$

     RDKit          2D

  9  9  0  0  0  0  0  0  0  0999 V2000
    5.3933   -3.1453    0.0000 N   0  0  0  0  0  0  0  0  0  0  0  0
    2.5354   -3.1453    0.0000 N   0  0  0  0  0  0  0  0  0  0  0  0
    3.9643   -0.6703    0.0000 N   0  0  0  0  0  0  0  0  0  0  0  0
    3.9643   -1.4953    0.0000 C   0  0  0  0  0  0  0  0  0  0  0  0
    3.2498   -2.7328    0.0000 C   0  0  0  0  0  0  0  0  0  0  0  0
    4.6788   -2.7328    0.0000 C   0  0  0  0  0  0  0  0  0  0  0  0
    4.6788   -1.9078    0.0000 C   0  0  0  0  0  0  0  0  0  0  0  0
    3.2498   -1.9078    0.0000 C   0  0  0  0  0  0  0  0  0  0  0  0
    3.9643   -3.1453    0.0000 C   0  0  0  0  0  0  0  0  0  0  0  0
  1  6  1  0
  2  5  1  0
  3  4  1  0
  4  7  2  0
  4  8  1  0
  5  8  2  0
  5  9  1  0
  6  7  1  0
  6  9  2  0
M  END

> <chembl_id>
CHEMBL1896983

> <chembl_pref_name>
None

$$$$

     RDKit          2D

  9  8  0  0  0  0  0  0  0  0999 V2000
    2.4083   -5.3958    0.0000 Na  0  0  0  0  0 15  0  0  0  0  0  0
    5.9583   -5.0833    0.0000 N   0  0  0  0  0  0  0  0  0  0  0  0
    5.9583   -5.9083    0.0000 C   0  0  0  0  0  0  0  0  0  0  0  0
    5.2417   -4.6708    0.0000 C   0  0  0  0  0  0  0  0  0  0  0  0
    4.5292   -5.0833    0.0000 C   0  0  0  0  0  0  0  0  0  0  0  0
    5.2417   -6.3208    0.0000 N   0  0  0  0  0  0  0  0  0  0  0  0
    4.5292   -5.9083    0.0000 C   0  0  0  0  0  0  0  0  0  0  0  0
    6.6708   -6.3208    0.0000 O   0  0  0  0  0  0  0  0  0  0  0  0
    5.2417   -3.8458    0.0000 N   0  0  0  0  0  0  0  0  0  0  0  0
  3  2  1  0
  4  2  2  0
  5  4  1  0
  6  3  1  0
  7  5  2  0
  8  3  2  0
  9  4  1  0
  7  6  1  0
M  CHG  2   1   1   6  -1
M  END

> <chembl_id>
CHEMBL2028229

> <chembl_pref_name>
None

$$$$

     RDKit          2D

 11 11  0  0  0  0  0  0  0  0999 V2000
    3.3191  -17.4274    0.0000 C   0  0  0  0  0  0  0  0  0  0  0  0
    3.3179  -18.2547    0.0000 C   0  0  0  0  0  0  0  0  0  0  0  0
    4.0327  -18.6675    0.0000 C   0  0  0  0  0  0  0  0  0  0  0  0
    4.7490  -18.2542    0.0000 C   0  0  0  0  0  0  0  0  0  0  0  0
    4.7461  -17.4238    0.0000 C   0  0  0  0  0  0  0  0  0  0  0  0
    4.0309  -17.0147    0.0000 C   0  0  0  0  0  0  0  0  0  0  0  0
    5.4591  -17.0086    0.0000 C   0  0  0  0  0  0  0  0  0  0  0  0
    6.1750  -17.4184    0.0000 C   0  0  0  0  0  0  0  0  0  0  0  0
    6.8878  -17.0032    0.0000 C   0  0  0  0  0  0  0  0  0  0  0  0
    7.6037  -17.4130    0.0000 N   0  0  0  0  0  0  0  0  0  0  0  0
    8.3166  -16.9978    0.0000 O   0  0  0  0  0  0  0  0  0  0  0  0
  5  6  2  0
  6  1  1  0
  1  2  2  0
  5  7  1  0
  3  4  2  0
  7  8  2  0
  8  9  1  0
  4  5  1  0
  9 10  2  0
  2  3  1  0
 10 11  1  0
M  END

> <chembl_id>
CHEMBL589874

> <chembl_pref_name>
None

$$$$

     RDKit          2D

 10 10  0  0  0  0  0  0  0  0999 V2000
    0.9417   -0.8750    0.0000 N   0  0  0  0  0  0  0  0  0  0  0  0
    3.0875    0.3750    0.0000 C   0  0  0  0  0  0  0  0  0  0  0  0
    2.3667    0.7833    0.0000 C   0  0  0  0  0  0  0  0  0  0  0  0
    3.7917    1.6125    0.0000 O   0  0  0  0  0  0  0  0  0  0  0  0
    3.8000    0.7875    0.0000 C   0  0  0  0  0  0  0  0  0  0  0  0
    1.6542    0.3708    0.0000 C   0  0  0  0  0  0  0  0  0  0  0  0
    1.6542   -0.4625    0.0000 C   0  0  0  0  0  0  0  0  0  0  0  0
    0.2292   -0.4625    0.0000 C   0  0  0  0  0  0  0  0  0  0  0  0
    0.9417    0.7833    0.0000 C   0  0  0  0  0  0  0  0  0  0  0  0
    0.2292    0.3625    0.0000 C   0  0  0  0  0  0  0  0  0  0  0  0
  2  3  2  0
  3  6  1  0
  4  5  2  0
  5  2  1  0
  6  7  1  0
  7  1  2  0
  8  1  1  0
  9 10  1  0
 10  8  2  0
  9  6  2  0
M  END

> <chembl_id>
CHEMBL53579

> <chembl_pref_name>
None

$$$$

     RDKit          2D

 10 10  0  0  0  0  0  0  0  0999 V2000
    0.9790   -1.0704    0.0000 C   0  0  0  0  0  0  0  0  0  0  0  0
    0.1140   -0.5688    0.0000 C   0  0  0  0  0  0  0  0  0  0  0  0
   -0.7530   -1.0670    0.0000 C   0  0  0  0  0  0  0  0  0  0  0  0
   -1.6180   -0.5652    0.0000 N   0  0  0  0  0  0  0  0  0  0  0  0
   -1.6160    0.4348    0.0000 C   0  0  0  0  0  0  0  0  0  0  0  0
   -2.4810    0.9364    0.0000 O   0  0  0  0  0  0  0  0  0  0  0  0
   -0.7490    0.9330    0.0000 C   0  0  0  0  0  0  0  0  0  0  0  0
   -0.7470    1.9330    0.0000 C   0  0  0  0  0  0  0  0  0  0  0  0
   -0.7450    2.9330    0.0000 N   0  0  0  0  0  0  0  0  0  0  0  0
    0.1160    0.4312    0.0000 C   0  0  0  0  0  0  0  0  0  0  0  0
  1  2  1  0
  2  3  2  0
  3  4  1  0
  4  5  1  0
  5  6  2  0
  5  7  1  0
  7  8  1  0
  8  9  3  0
  7 10  2  0
 10  2  1  0
M  END

> <chembl_id>
CHEMBL4540865

> <chembl_pref_name>
None

$$$$

     RDKit          2D

  9  9  0  0  0  0  0  0  0  0999 V2000
    2.4050   -0.2540    0.0000 C   0  0  0  0  0  0  0  0  0  0  0  0
    1.5422    0.2514    0.0000 C   0  0  0  0  0  0  0  0  0  0  0  0
    1.5486    1.2514    0.0000 N   0  0  0  0  0  0  0  0  0  0  0  0
    0.6858    1.7570    0.0000 C   0  0  0  0  0  0  0  0  0  0  0  0
   -0.1834    1.2626    0.0000 C   0  0  0  0  0  0  0  0  0  0  0  0
   -0.1898    0.2626    0.0000 C   0  0  0  0  0  0  0  0  0  0  0  0
   -1.0590   -0.2318    0.0000 C   0  0  0  0  0  0  0  0  0  0  0  0
   -1.9218    0.2738    0.0000 N   0  0  0  0  0  0  0  0  0  0  0  0
    0.6730   -0.2430    0.0000 N   0  0  0  0  0  0  0  0  0  0  0  0
  1  2  1  0
  2  3  2  0
  3  4  1  0
  4  5  2  0
  5  6  1  0
  6  7  1  0
  7  8  1  0
  6  9  2  0
  9  2  1  0
M  END

> <chembl_id>
CHEMBL4528614

> <chembl_pref_name>
None

$$$$

     RDKit          2D

 10 10  0  0  0  0  0  0  0  0999 V2000
   -2.7220   -0.6354    0.0000 C   0  0  0  0  0  0  0  0  0  0  0  0
   -1.8578   -0.1324    0.0000 C   0  0  0  0  0  0  0  0  0  0  0  0
   -1.8614    0.8676    0.0000 N   0  0  0  0  0  0  0  0  0  0  0  0
   -0.9900   -0.6292    0.0000 C   0  0  0  0  0  0  0  0  0  0  0  0
   -0.1258   -0.1262    0.0000 C   0  0  0  0  0  0  0  0  0  0  0  0
    0.7420   -0.6230    0.0000 C   0  0  0  0  0  0  0  0  0  0  0  0
    1.6064   -0.1200    0.0000 C   0  0  0  0  0  0  0  0  0  0  0  0
    1.6026    0.8800    0.0000 N   0  0  0  0  0  0  0  0  0  0  0  0
    0.7348    1.3768    0.0000 C   0  0  0  0  0  0  0  0  0  0  0  0
   -0.1294    0.8738    0.0000 C   0  0  0  0  0  0  0  0  0  0  0  0
  1  2  1  0
  2  3  1  0
  2  4  1  0
  4  5  1  0
  5  6  2  0
  6  7  1  0
  7  8  2  0
  8  9  1  0
  9 10  2  0
 10  5  1  0
M  END

> <chembl_id>
CHEMBL4532855

> <chembl_pref_name>
None

$$$$

     RDKit          2D

 10 10  0  0  0  0  0  0  0  0999 V2000
    1.5144   -1.2848    0.0000 C   0  0  0  0  0  0  0  0  0  0  0  0
    0.6488   -0.7840    0.0000 C   0  0  0  0  0  0  0  0  0  0  0  0
    0.6496    0.2160    0.0000 C   0  0  0  0  0  0  0  0  0  0  0  0
   -0.2160    0.7166    0.0000 N   0  0  0  0  0  0  0  0  0  0  0  0
   -1.0824    0.2174    0.0000 C   0  0  0  0  0  0  0  0  0  0  0  0
   -1.9480    0.7180    0.0000 O   0  0  0  0  0  0  0  0  0  0  0  0
   -1.0832   -0.7826    0.0000 C   0  0  0  0  0  0  0  0  0  0  0  0
   -1.9496   -1.2820    0.0000 C   0  0  0  0  0  0  0  0  0  0  0  0
   -2.8152   -0.7812    0.0000 N   0  0  0  0  0  0  0  0  0  0  0  0
   -0.2176   -1.2834    0.0000 C   0  0  0  0  0  0  0  0  0  0  0  0
  1  2  1  0
  2  3  2  0
  3  4  1  0
  4  5  1  0
  5  6  2  0
  5  7  1  0
  7  8  1  0
  8  9  1  0
  7 10  2  0
 10  2  1  0
M  END

> <chembl_id>
CHEMBL4536939

> <chembl_pref_name>
None

$$$$
 
     RDKit          2D

 10 10  0  0  0  0  0  0  0  0999 V2000
    3.7958  -18.6707    0.0000 C   0  0  0  0  0  0  0  0  0  0  0  0
    4.6208  -18.6707    0.0000 N   0  0  0  0  0  0  0  0  0  0  0  0
    4.8775  -17.8865    0.0000 C   0  0  0  0  0  0  0  0  0  0  0  0
    4.2083  -17.3998    0.0000 C   0  0  0  0  0  0  0  0  0  0  0  0
    3.5432  -17.8865    0.0000 N   0  0  0  0  0  0  0  0  0  0  0  0
    3.3100  -19.3375    0.0000 C   0  0  0  0  0  0  0  0  0  0  0  0
    5.1049  -19.3387    0.0000 C   0  0  0  0  0  0  0  0  0  0  0  0
    5.9254  -19.2535    0.0000 C   0  0  0  0  0  0  0  0  0  0  0  0
    6.4096  -19.9214    0.0000 O   0  0  0  0  0  0  0  0  0  0  0  0
    5.6625  -17.6327    0.0000 N   0  0  0  0  0  0  0  0  0  0  0  0
  1  2  1  0
  2  3  1  0
  3  4  2  0
  4  5  1  0
  5  1  2  0
  1  6  1  0
  2  7  1  0
  7  8  1  0
  8  9  1  0
  3 10  1  0
M  END

> <chembl_id>
CHEMBL4460108

> <chembl_pref_name>
None

$$$$

     RDKit          2D

  8  8  0  0  0  0  0  0  0  0999 V2000
   -2.7680   -0.1118    0.0000 O   0  0  0  0  0  0  0  0  0  0  0  0
   -1.9028    0.3892    0.0000 C   0  0  0  0  0  0  0  0  0  0  0  0
   -1.0362   -0.1100    0.0000 C   0  0  0  0  0  0  0  0  0  0  0  0
   -0.9306   -1.1042    0.0000 S   0  0  0  0  0  0  0  0  0  0  0  0
    0.0478   -1.3110    0.0000 C   0  0  0  0  0  0  0  0  0  0  0  0
    0.5468   -0.4444    0.0000 N   0  0  0  0  0  0  0  0  0  0  0  0
   -0.1230    0.2978    0.0000 C   0  0  0  0  0  0  0  0  0  0  0  0
    0.0838    1.2762    0.0000 Cl  0  0  0  0  0  0  0  0  0  0  0  0
  1  2  1  0
  2  3  1  0
  3  4  1  0
  4  5  1  0
  5  6  2  0
  6  7  1  0
  7  8  1  0
  7  3  2  0
M  END

> <chembl_id>
CHEMBL4553561

> <chembl_pref_name>
None

$$$$

     RDKit          2D

 11 12  0  0  0  0  0  0  0  0999 V2000
   -1.3369   -1.4442    0.0000 O   0  0  0  0  0  0  0  0  0  0  0  0
    1.8461    0.8329    0.0000 N   0  0  0  0  0  0  0  0  0  0  0  0
   -0.2973   -0.4046    0.0000 C   0  0  0  0  0  0  0  0  0  0  0  0
   -0.2973    0.4204    0.0000 C   0  0  0  0  0  0  0  0  0  0  0  0
   -1.0819   -0.6596    0.0000 C   0  0  0  0  0  0  0  0  0  0  0  0
    0.4172    0.8329    0.0000 C   0  0  0  0  0  0  0  0  0  0  0  0
   -1.0819    0.6753    0.0000 C   0  0  0  0  0  0  0  0  0  0  0  0
    0.4172   -0.8171    0.0000 C   0  0  0  0  0  0  0  0  0  0  0  0
    1.1316    0.4204    0.0000 C   0  0  0  0  0  0  0  0  0  0  0  0
   -1.5669    0.0079    0.0000 C   0  0  0  0  0  0  0  0  0  0  0  0
    1.1316   -0.4046    0.0000 C   0  0  0  0  0  0  0  0  0  0  0  0
  1  5  2  0
  2  9  1  0
  3  4  1  0
  3  5  1  0
  3  8  2  0
  4  6  2  0
  4  7  1  0
  5 10  1  0
  6  9  1  0
  7 10  1  0
  8 11  1  0
  9 11  2  0
M  END

> <chembl_id>
CHEMBL1568187

> <chembl_pref_name>
None

$$$$

     RDKit          2D

  8  8  0  0  0  0  0  0  0  0999 V2000
    0.7429    1.1563    0.0000 O   0  0  0  0  0  0  0  0  0  0  0  0
    0.0285    0.7438    0.0000 C   0  0  0  0  0  0  0  0  0  0  0  0
   -0.6860    1.1563    0.0000 O   0  0  0  0  0  0  0  0  0  0  0  0
    0.0285   -0.0812    0.0000 C   0  0  0  0  0  0  0  0  0  0  0  0
    0.6959   -0.5661    0.0000 S   0  0  0  0  0  0  0  0  0  0  0  0
   -0.6390   -0.5661    0.0000 C   0  0  0  0  0  0  0  0  0  0  0  0
   -0.3840   -1.3507    0.0000 C   0  0  0  0  0  0  0  0  0  0  0  0
    0.4410   -1.3507    0.0000 C   0  0  0  0  0  0  0  0  0  0  0  0
  2  1  2  0
  2  3  1  0
  4  2  1  0
  4  5  1  0
  6  4  2  0
  8  5  1  0
  7  6  1  0
  8  7  2  0
M  END

> <chembl_id>
CHEMBL1222314

> <chembl_pref_name>
THIOPHENE CARBOXYLIC ACID

$$$$

     RDKit          2D

 10 10  0  0  0  0  0  0  0  0999 V2000
   15.7320    2.3767    0.0000 C   0  0  0  0  0  0  0  0  0  0  0  0
   15.7308    1.5502    0.0000 C   0  0  0  0  0  0  0  0  0  0  0  0
   16.4449    1.1378    0.0000 N   0  0  0  0  0  0  0  0  0  0  0  0
   17.1607    1.5507    0.0000 C   0  0  0  0  0  0  0  0  0  0  0  0
   17.1578    2.3803    0.0000 C   0  0  0  0  0  0  0  0  0  0  0  0
   16.4431    2.7891    0.0000 C   0  0  0  0  0  0  0  0  0  0  0  0
   17.8760    1.1397    0.0000 C   0  0  0  0  0  0  0  0  0  0  0  0
   17.8773    0.3155    0.0000 O   0  0  0  0  0  0  0  0  0  0  0  0
   18.5891    1.5529    0.0000 O   0  0  0  0  0  0  0  0  0  0  0  0
   15.0168    1.1387    0.0000 O   0  0  0  0  0  0  0  0  0  0  0  0
  2  3  1  0
  5  6  2  0
  6  1  1  0
  1  2  2  0
  3  4  2  0
  7  8  1  0
  7  9  2  0
  4  7  1  0
  4  5  1  0
  2 10  1  0
M  END

> <chembl_id>
CHEMBL1650602

> <chembl_pref_name>
None

$$$$

     RDKit          2D

  9  9  0  0  0  0  0  0  0  0999 V2000
   20.1782    1.5500    0.0000 C   0  0  0  0  0  0  0  0  0  0  0  0
   20.8939    1.9604    0.0000 C   0  0  0  0  0  0  0  0  0  0  0  0
   21.6434    1.6216    0.0000 N   0  0  0  0  0  0  0  0  0  0  0  0
   22.1972    2.2331    0.0000 N   0  0  0  0  0  0  0  0  0  0  0  0
   21.7868    2.9488    0.0000 N   0  0  0  0  0  0  0  0  0  0  0  0
   20.9793    2.7795    0.0000 N   0  0  0  0  0  0  0  0  0  0  0  0
   19.4649    1.9646    0.0000 C   0  0  0  0  0  0  0  0  0  0  0  0
   18.7493    1.5542    0.0000 C   0  0  0  0  0  0  0  0  0  0  0  0
   18.0360    1.9688    0.0000 N   0  0  0  0  0  0  0  0  0  0  0  0
  3  4  1  0
  4  5  2  0
  5  6  1  0
  6  2  2  0
  1  2  1  0
  1  7  1  0
  2  3  1  0
  7  8  1  0
  8  9  1  0
M  END

> <chembl_id>
CHEMBL1917056

> <chembl_pref_name>
None

$$$$

     RDKit          2D

 11 12  0  0  0  0  0  0  0  0999 V2000
    0.4714    2.1064    0.0000 N   0  0  0  0  0  0  0  0  0  0  0  0
    1.1400    1.3628    0.0000 C   0  0  0  0  0  0  0  0  0  0  0  0
    0.8302    0.4120    0.0000 C   0  0  0  0  0  0  0  0  0  0  0  0
    1.4174   -0.3974    0.0000 C   0  0  0  0  0  0  0  0  0  0  0  0
    0.8290   -1.2060    0.0000 O   0  0  0  0  0  0  0  0  0  0  0  0
   -0.1218   -0.8962    0.0000 C   0  0  0  0  0  0  0  0  0  0  0  0
   -0.9882   -1.3956    0.0000 C   0  0  0  0  0  0  0  0  0  0  0  0
   -1.8538   -0.8948    0.0000 C   0  0  0  0  0  0  0  0  0  0  0  0
   -1.8530    0.1052    0.0000 C   0  0  0  0  0  0  0  0  0  0  0  0
   -0.9866    0.6044    0.0000 C   0  0  0  0  0  0  0  0  0  0  0  0
   -0.1210    0.1038    0.0000 C   0  0  0  0  0  0  0  0  0  0  0  0
  1  2  1  0
  2  3  1  0
  3  4  1  0
  4  5  1  0
  5  6  1  0
  6  7  2  0
  7  8  1  0
  8  9  2  0
  9 10  1  0
 10 11  2  0
 11  3  1  0
 11  6  1  0
M  END

> <chembl_id>
CHEMBL4534358

> <chembl_pref_name>
None

$$$$

     RDKit          2D

 10 10  0  0  0  0  0  0  0  0999 V2000
    1.0040   -0.6584    0.0000 N   0  0  0  0  0  0  0  0  0  0  0  0
    2.3389   -0.6584    0.0000 N   0  0  0  0  0  0  0  0  0  0  0  0
    1.6714   -0.1735    0.0000 C   0  0  0  0  0  0  0  0  0  0  0  0
    1.2589   -1.4430    0.0000 C   0  0  0  0  0  0  0  0  0  0  0  0
    2.0839   -1.4430    0.0000 C   0  0  0  0  0  0  0  0  0  0  0  0
    0.2194   -0.4034    0.0000 C   0  0  0  0  0  0  0  0  0  0  0  0
    1.6714    0.6515    0.0000 C   0  0  0  0  0  0  0  0  0  0  0  0
   -0.3937   -0.9555    0.0000 C   0  0  0  0  0  0  0  0  0  0  0  0
   -1.1783   -0.7005    0.0000 C   0  0  0  0  0  0  0  0  0  0  0  0
   -1.7914   -1.2526    0.0000 C   0  0  0  0  0  0  0  0  0  0  0  0
  1  3  1  0
  1  4  1  0
  1  6  1  0
  2  3  2  0
  2  5  1  0
  3  7  1  0
  4  5  2  0
  6  8  1  0
  8  9  1  0
  9 10  1  0
M  END

> <chembl_id>
CHEMBL1421623

> <chembl_pref_name>
None

$$$$

     RDKit          2D

 10 10  0  0  0  0  0  0  0  0999 V2000
   -0.1590   -0.8500    0.0000 N   0  0  0  0  0  0  0  0  0  0  0  0
   -0.1590   -0.0250    0.0000 C   0  0  0  0  0  0  0  0  0  0  0  0
   -0.8735    0.3875    0.0000 C   0  0  0  0  0  0  0  0  0  0  0  0
   -1.5879   -0.0250    0.0000 O   0  0  0  0  0  0  0  0  0  0  0  0
    0.5555    0.3875    0.0000 C   0  0  0  0  0  0  0  0  0  0  0  0
    0.5555    1.2125    0.0000 O   0  0  0  0  0  0  0  0  0  0  0  0
    1.2699   -0.0250    0.0000 C   0  0  0  0  0  0  0  0  0  0  0  0
    1.2699   -0.8500    0.0000 C   0  0  0  0  0  0  0  0  0  0  0  0
    0.5555   -1.2625    0.0000 C   0  0  0  0  0  0  0  0  0  0  0  0
   -0.8735    1.2125    0.0000 O   0  0  0  0  0  0  0  0  0  0  0  0
  2  1  2  0
  9  1  1  0
  3  2  1  0
  2  5  1  0
  3  4  2  0
  3 10  1  0
  5  6  1  0
  5  7  2  0
  8  7  1  0
  8  9  2  0
M  END

> <chembl_id>
CHEMBL1234326

> <chembl_pref_name>
None

$$$$

     RDKit          2D

  8  8  0  0  0  0  0  0  0  0999 V2000
    2.3845   -0.1420    0.0000 Cl  0  0  0  0  0  0  0  0  0  0  0  0
    1.6700   -0.5545    0.0000 C   0  0  0  0  0  0  0  0  0  0  0  0
    1.6700   -1.3795    0.0000 C   0  0  0  0  0  0  0  0  0  0  0  0
    0.9556   -1.7920    0.0000 C   0  0  0  0  0  0  0  0  0  0  0  0
    0.2411   -1.3795    0.0000 C   0  0  0  0  0  0  0  0  0  0  0  0
    0.2411   -0.5545    0.0000 C   0  0  0  0  0  0  0  0  0  0  0  0
    0.9556   -0.1420    0.0000 C   0  0  0  0  0  0  0  0  0  0  0  0
    0.9556    0.6830    0.0000 Cl  0  0  0  0  0  0  0  0  0  0  0  0
  2  1  1  0
  3  2  2  0
  2  7  1  0
  4  3  1  0
  4  5  2  0
  5  6  1  0
  6  7  2  0
  7  8  1  0
M  END

> <chembl_id>
CHEMBL298461

> <chembl_pref_name>
1,2-DICHLOROBENZENE

$$$$

     RDKit          2D

  9  9  0  0  0  0  0  0  0  0999 V2000
    1.4289    0.5030    0.0000 C   0  0  0  0  0  0  0  0  0  0  0  0
    0.7145    0.0905    0.0000 C   0  0  0  0  0  0  0  0  0  0  0  0
    0.7145   -0.7345    0.0000 C   0  0  0  0  0  0  0  0  0  0  0  0
   -0.0000   -1.1470    0.0000 C   0  0  0  0  0  0  0  0  0  0  0  0
   -0.7145   -0.7345    0.0000 C   0  0  0  0  0  0  0  0  0  0  0  0
   -0.7145    0.0905    0.0000 C   0  0  0  0  0  0  0  0  0  0  0  0
   -1.4289    0.5030    0.0000 C   0  0  0  0  0  0  0  0  0  0  0  0
   -0.0000    0.5030    0.0000 C   0  0  0  0  0  0  0  0  0  0  0  0
    0.0000    1.3280    0.0000 O   0  0  0  0  0  0  0  0  0  0  0  0
  2  1  1  0
  3  2  2  0
  8  2  1  0
  4  3  1  0
  5  4  2  0
  6  5  1  0
  6  7  1  0
  8  6  2  0
  8  9  1  0
M  END

> <chembl_id>
CHEMBL30106

> <chembl_pref_name>
None

$$$$

     RDKit          2D

 10 10  0  0  0  0  0  0  0  0999 V2000
   13.2073  -20.5927    0.0000 C   0  0  0  0  0  0  0  0  0  0  0  0
   12.9658  -21.3734    0.0000 N   0  0  0  0  0  0  0  0  0  0  0  0
   13.6326  -21.8460    0.0000 O   0  0  0  0  0  0  0  0  0  0  0  0
   14.2891  -21.3552    0.0000 C   0  0  0  0  0  0  0  0  0  0  0  0
   14.0233  -20.5834    0.0000 C   0  0  0  0  0  0  0  0  0  0  0  0
   12.7186  -19.9378    0.0000 N   0  0  0  0  0  0  0  0  0  0  0  0
   11.9014  -19.9107    0.0000 C   0  0  0  0  0  0  0  0  0  0  0  0
   11.5168  -19.1896    0.0000 C   0  0  0  0  0  0  0  0  0  0  0  0
   10.7001  -19.1621    0.0000 C   0  0  0  0  0  0  0  0  0  0  0  0
   10.3155  -18.4411    0.0000 C   0  0  0  0  0  0  0  0  0  0  0  0
  1  2  2  0
  2  3  1  0
  3  4  1  0
  4  5  2  0
  5  1  1  0
  1  6  1  0
  6  7  1  0
  7  8  1  0
  8  9  1  0
  9 10  1  0
M  END

> <chembl_id>
CHEMBL2436829

> <chembl_pref_name>
None

$$$$

     RDKit          2D

  9  9  0  0  0  0  0  0  0  0999 V2000
   12.3446   -2.0454    0.0000 C   0  0  0  0  0  0  0  0  0  0  0  0
   12.9937   -2.5419    0.0000 S   0  0  0  0  0  0  0  0  0  0  0  0
   13.6676   -2.0795    0.0000 C   0  0  0  0  0  0  0  0  0  0  0  0
   13.4339   -1.2938    0.0000 C   0  0  0  0  0  0  0  0  0  0  0  0
   12.6178   -1.2765    0.0000 C   0  0  0  0  0  0  0  0  0  0  0  0
   14.4379   -2.3522    0.0000 C   0  0  0  0  0  0  0  0  0  0  0  0
   11.5611   -2.2777    0.0000 C   0  0  0  0  0  0  0  0  0  0  0  0
   10.7782   -2.5092    0.0000 N   0  0  0  0  0  0  0  0  0  0  0  0
   15.2072   -2.6249    0.0000 N   0  0  0  0  0  0  0  0  0  0  0  0
  1  2  1  0
  2  3  1  0
  3  4  2  0
  4  5  1  0
  5  1  2  0
  3  6  1  0
  1  7  1  0
  7  8  3  0
  6  9  3  0
M  END

> <chembl_id>
CHEMBL2229529

> <chembl_pref_name>
2,5-THIOPHENEDINITRILE

$$$$

     RDKit          2D

  7  7  0  0  0  0  0  0  0  0999 V2000
   11.2172   -6.8377    0.0000 N   0  0  0  0  0  0  0  0  0  0  0  0
   10.4326   -7.0926    0.0000 N   0  0  0  0  0  0  0  0  0  0  0  0
    9.9477   -6.4252    0.0000 C   0  0  0  0  0  0  0  0  0  0  0  0
   10.4326   -5.7577    0.0000 N   0  0  0  0  0  0  0  0  0  0  0  0
   11.2172   -6.0127    0.0000 C   0  0  0  0  0  0  0  0  0  0  0  0
   10.1777   -4.9731    0.0000 C   0  0  0  0  0  0  0  0  0  0  0  0
    9.1227   -6.4252    0.0000 S   0  0  0  0  0  0  0  0  0  0  0  0
  1  2  1  0
  2  3  2  0
  3  4  1  0
  4  5  1  0
  1  5  2  0
  4  6  1  0
  3  7  1  0
M  END

> <chembl_id>
CHEMBL2398113

> <chembl_pref_name>
None

$$$$

     RDKit          2D

 10 10  0  0  0  0  0  0  0  0999 V2000
    4.2938   -1.2452    0.0000 O   0  0  0  0  0  0  0  0  0  0  0  0
    1.4255   -1.2452    0.0000 C   0  0  0  0  0  0  0  0  0  0  0  0
    1.4255   -0.4079    0.0000 C   0  0  0  0  0  0  0  0  0  0  0  0
    0.7171   -1.6531    0.0000 C   0  0  0  0  0  0  0  0  0  0  0  0
    2.1426   -1.6531    0.0000 C   0  0  0  0  0  0  0  0  0  0  0  0
    0.7171    0.0000    0.0000 C   0  0  0  0  0  0  0  0  0  0  0  0
    0.0000   -1.2452    0.0000 C   0  0  0  0  0  0  0  0  0  0  0  0
    2.8597   -1.2452    0.0000 C   0  0  0  0  0  0  0  0  0  0  0  0
    0.0000   -0.4079    0.0000 C   0  0  0  0  0  0  0  0  0  0  0  0
    3.5768   -1.6531    0.0000 C   0  0  0  0  0  0  0  0  0  0  0  0
  1 10  2  0
  2  3  2  0
  2  4  1  0
  2  5  1  0
  3  6  1  0
  4  7  2  0
  5  8  2  3
  6  9  2  0
  7  9  1  0
  8 10  1  0
M  END

> <chembl_id>
CHEMBL3187944

> <chembl_pref_name>
None

$$$$
 
     RDKit          2D

 11 12  0  0  0  0  0  0  0  0999 V2000
   21.7697   -4.7710    0.0000 C   0  0  0  0  0  0  0  0  0  0  0  0
   21.7686   -5.5906    0.0000 C   0  0  0  0  0  0  0  0  0  0  0  0
   22.4766   -5.9995    0.0000 C   0  0  0  0  0  0  0  0  0  0  0  0
   23.1863   -5.5901    0.0000 C   0  0  0  0  0  0  0  0  0  0  0  0
   23.1834   -4.7674    0.0000 C   0  0  0  0  0  0  0  0  0  0  0  0
   22.4748   -4.3622    0.0000 C   0  0  0  0  0  0  0  0  0  0  0  0
   22.4724   -3.5450    0.0000 N   0  0  0  0  0  0  0  0  0  0  0  0
   23.0485   -2.9714    0.0000 C   0  0  0  0  0  0  0  0  0  0  0  0
   22.4689   -2.3953    0.0000 C   0  0  0  0  0  0  0  0  0  0  0  0
   21.8928   -2.9748    0.0000 C   0  0  0  0  0  0  0  0  0  0  0  0
   21.0756   -2.9794    0.0000 O   0  0  0  0  0  0  0  0  0  0  0  0
  1  2  2  0
  2  3  1  0
  3  4  2  0
  4  5  1  0
  5  6  2  0
  6  1  1  0
  6  7  1  0
  7  8  1  0
  8  9  1  0
  9 10  1  0
 10  7  1  0
 10 11  2  0
M  END

> <chembl_id>
CHEMBL4454865

> <chembl_pref_name>
None

$$$$

     RDKit          2D

 10 10  0  0  0  0  0  0  0  0999 V2000
   -0.0750   -9.2417    0.0000 C   0  0  0  0  0  0  0  0  0  0  0  0
   -0.0750  -10.0750    0.0000 C   0  0  0  0  0  0  0  0  0  0  0  0
   -0.7958   -8.8292    0.0000 C   0  0  0  0  0  0  0  0  0  0  0  0
    0.6375  -10.4875    0.0000 O   0  0  0  0  0  0  0  0  0  0  0  0
   -0.0833   -6.7667    0.0000 O   0  0  0  0  0  0  0  0  0  0  0  0
   -1.5083  -10.0750    0.0000 C   0  0  0  0  0  0  0  0  0  0  0  0
   -0.7958  -10.4875    0.0000 C   0  0  0  0  0  0  0  0  0  0  0  0
   -1.5083   -9.2500    0.0000 C   0  0  0  0  0  0  0  0  0  0  0  0
   -0.7958   -8.0042    0.0000 C   0  0  0  0  0  0  0  0  0  0  0  0
   -0.0833   -7.5917    0.0000 C   0  0  0  0  0  0  0  0  0  0  0  0
  2  1  1  0
  3  1  2  0
  4  2  1  0
  5 10  1  0
  6  8  2  0
  7  2  2  0
  8  3  1  0
  9  3  1  0
 10  9  1  0
  6  7  1  0
M  END

> <chembl_id>
CHEMBL54498

> <chembl_pref_name>
None

$$$$

     RDKit          2D

  6  6  0  0  0  0  0  0  0  0999 V2000
    0.2592   -2.0947    0.0000 S   0  0  0  0  0  0  0  0  0  0  0  0
    1.3391   -1.3101    0.0000 N   0  0  0  0  0  0  0  0  0  0  0  0
    0.6717   -0.8252    0.0000 C   0  0  0  0  0  0  0  0  0  0  0  0
    0.0043   -1.3101    0.0000 C   0  0  0  0  0  0  0  0  0  0  0  0
    1.0842   -2.0947    0.0000 C   0  0  0  0  0  0  0  0  0  0  0  0
    0.6717   -0.0002    0.0000 C   0  0  0  0  0  0  0  0  0  0  0  0
  1  4  1  0
  1  5  1  0
  2  3  1  0
  2  5  2  0
  3  4  2  0
  3  6  1  0
M  END

> <chembl_id>
CHEMBL1566946

> <chembl_pref_name>
None

$$$$

     RDKit          2D

 10 11  0  0  0  0  0  0  0  0999 V2000
   -2.0708    0.9083    0.0000 C   0  0  0  0  0  0  0  0  0  0  0  0
   -1.4708    1.4750    0.0000 C   0  0  0  0  0  0  0  0  0  0  0  0
   -1.2708    0.6750    0.0000 C   0  0  0  0  0  0  0  0  0  0  0  0
   -2.8708    0.7083    0.0000 C   0  0  0  0  0  0  0  0  0  0  0  0
   -4.1958    0.8000    0.0000 N   0  0  0  0  0  0  0  0  0  0  0  0
   -3.1708   -0.0542    0.0000 N   0  0  0  0  0  0  0  0  0  0  0  0
   -3.9958   -0.0042    0.0000 C   0  0  0  0  0  0  0  0  0  0  0  0
   -3.4958    1.2333    0.0000 C   0  0  0  0  0  0  0  0  0  0  0  0
   -0.4750    0.8958    0.0000 C   0  0  0  0  0  0  0  0  0  0  0  0
    0.1125    0.3208    0.0000 N   0  0  0  0  0  0  0  0  0  0  0  0
  2  1  1  0
  3  1  1  0
  4  1  1  0
  5  8  1  0
  6  4  1  0
  7  6  2  0
  8  4  2  0
  9  3  1  0
 10  9  1  0
  2  3  1  0
  5  7  1  0
M  END

> <chembl_id>
CHEMBL153284

> <chembl_pref_name>
None

$$$$

     RDKit          2D

  9  9  0  0  0  0  0  0  0  0999 V2000
   -1.4517    1.9618    0.0000 O   0  0  0  0  0  0  0  0  0  0  0  0
   -2.2132    4.9218    0.0000 O   0  0  0  0  0  0  0  0  0  0  0  0
   -0.3718    1.1772    0.0000 N   0  0  0  0  0  0  0  0  0  0  0  0
   -0.7843    2.4468    0.0000 C   0  0  0  0  0  0  0  0  0  0  0  0
   -0.1168    1.9618    0.0000 C   0  0  0  0  0  0  0  0  0  0  0  0
   -1.1968    1.1772    0.0000 C   0  0  0  0  0  0  0  0  0  0  0  0
   -0.7843    3.2718    0.0000 C   0  0  0  0  0  0  0  0  0  0  0  0
   -1.4987    3.6843    0.0000 C   0  0  0  0  0  0  0  0  0  0  0  0
   -1.4987    4.5093    0.0000 C   0  0  0  0  0  0  0  0  0  0  0  0
  1  4  1  0
  1  6  1  0
  2  9  1  0
  3  5  1  0
  3  6  2  0
  4  5  2  0
  4  7  1  0
  7  8  1  0
  8  9  1  0
M  END

> <chembl_id>
CHEMBL1983387

> <chembl_pref_name>
None

$$$$

     RDKit          2D

 10 10  0  0  0  0  0  0  0  0999 V2000
    1.7125   -1.4042    0.0000 N   0  0  0  0  0  0  0  0  0  0  0  0
    1.1917   -1.1042    0.0000 C   0  0  0  0  0  0  0  0  0  0  0  0
    1.1917   -0.5000    0.0000 C   0  0  0  0  0  0  0  0  0  0  0  0
    1.7167   -2.0042    0.0000 O   0  0  0  0  0  0  0  0  0  0  0  0
    2.2292   -1.1000    0.0000 O   0  0  0  0  0  0  0  0  0  0  0  0
    0.6667   -0.2000    0.0000 C   0  0  0  0  0  0  0  0  0  0  0  0
    0.6667    0.4000    0.0000 N   0  0  0  0  0  0  0  0  0  0  0  0
    0.6667   -1.4042    0.0000 C   0  0  0  0  0  0  0  0  0  0  0  0
    0.1542   -1.1042    0.0000 C   0  0  0  0  0  0  0  0  0  0  0  0
    0.1542   -0.5000    0.0000 C   0  0  0  0  0  0  0  0  0  0  0  0
  2  1  1  0
  3  2  1  0
  4  1  1  0
  5  1  2  0
  6  3  2  0
  7  6  1  0
  8  2  2  0
  9  8  1  0
 10  9  2  0
 10  6  1  0
M  CHG  2   1   1   4  -1
M  END

> <chembl_id>
CHEMBL14068

> <chembl_pref_name>
3-NITROANILINE

$$$$

     RDKit          2D

  9  9  0  0  0  0  0  0  0  0999 V2000
    3.5417   -2.2542    0.0000 N   0  0  0  0  0  0  0  0  0  0  0  0
    3.5417   -3.0792    0.0000 C   0  0  0  0  0  0  0  0  0  0  0  0
    3.5417   -4.7292    0.0000 C   0  0  0  0  0  0  0  0  0  0  0  0
    3.5417   -5.5542    0.0000 Cl  0  0  0  0  0  0  0  0  0  0  0  0
    4.2625   -3.4917    0.0000 C   0  0  0  0  0  0  0  0  0  0  0  0
    2.8292   -3.4917    0.0000 C   0  0  0  0  0  0  0  0  0  0  0  0
    2.8292   -4.3167    0.0000 C   0  0  0  0  0  0  0  0  0  0  0  0
    4.2625   -4.3167    0.0000 C   0  0  0  0  0  0  0  0  0  0  0  0
    4.2542   -1.8417    0.0000 O   0  0  0  0  0  0  0  0  0  0  0  0
  2  1  1  0
  3  7  1  0
  4  3  1  0
  5  2  2  0
  6  2  1  0
  7  6  2  0
  8  5  1  0
  9  1  1  0
  3  8  2  0
M  END

> <chembl_id>
CHEMBL150465

> <chembl_pref_name>
None

$$$$

     RDKit          2D

  8  8  0  0  0  0  0  0  0  0999 V2000
    0.3688   -0.0075    0.0000 S   0  0  0  0  0  0  0  0  0  0  0  0
   -0.2986    1.3024    0.0000 S   0  0  0  0  0  0  0  0  0  0  0  0
   -0.7111   -0.7922    0.0000 N   0  0  0  0  0  0  0  0  0  0  0  0
   -0.9660   -0.0075    0.0000 N   0  0  0  0  0  0  0  0  0  0  0  0
    0.5988   -1.4596    0.0000 N   0  0  0  0  0  0  0  0  0  0  0  0
    0.1139   -0.7922    0.0000 C   0  0  0  0  0  0  0  0  0  0  0  0
   -0.2986    0.4774    0.0000 C   0  0  0  0  0  0  0  0  0  0  0  0
    1.4193   -1.3734    0.0000 C   0  0  0  0  0  0  0  0  0  0  0  0
  1  6  1  0
  1  7  1  0
  2  7  1  0
  3  4  1  0
  3  6  2  0
  4  7  2  0
  5  6  1  0
  5  8  1  0
M  END

> <chembl_id>
CHEMBL1414888

> <chembl_pref_name>
None

$$$$

     RDKit          2D

  9  9  0  0  0  0  0  0  0  0999 V2000
    6.8292   -4.5375    0.0000 N   0  0  0  0  0  0  0  0  0  0  0  0
    6.1125   -4.1125    0.0000 C   0  0  0  0  0  0  0  0  0  0  0  0
    5.3917   -3.6875    0.0000 C   0  0  0  0  0  0  0  0  0  0  0  0
    5.3917   -2.8625    0.0000 C   0  0  0  0  0  0  0  0  0  0  0  0
    6.1125   -2.4417    0.0000 O   0  0  0  0  0  0  0  0  0  0  0  0
    4.6792   -4.1000    0.0000 C   0  0  0  0  0  0  0  0  0  0  0  0
    4.6792   -2.4500    0.0000 C   0  0  0  0  0  0  0  0  0  0  0  0
    3.9625   -3.6875    0.0000 C   0  0  0  0  0  0  0  0  0  0  0  0
    3.9625   -2.8625    0.0000 C   0  0  0  0  0  0  0  0  0  0  0  0
  2  1  3  0
  3  2  1  0
  4  3  1  0
  5  4  1  0
  6  3  2  0
  7  4  2  0
  8  6  1  0
  9  8  2  0
  9  7  1  0
M  END

> <chembl_id>
CHEMBL195342

> <chembl_pref_name>
None

$$$$

     RDKit          2D

  7  7  0  0  0  0  0  0  0  0999 V2000
    7.6176    0.5866    0.0000 C   0  0  0  0  0  0  0  0  0  0  0  0
    8.4426    0.5866    0.0000 C   0  0  0  0  0  0  0  0  0  0  0  0
    8.6976    1.3713    0.0000 C   0  0  0  0  0  0  0  0  0  0  0  0
    8.0301    1.8563    0.0000 S   0  0  0  0  0  0  0  0  0  0  0  0
    7.3627    1.3713    0.0000 C   0  0  0  0  0  0  0  0  0  0  0  0
    9.4823    1.6262    0.0000 C   0  0  0  0  0  0  0  0  0  0  0  0
   10.0953    1.0742    0.0000 N   0  0  0  0  0  0  0  0  0  0  0  0
  2  3  2  0
  3  4  1  0
  4  5  1  0
  5  1  2  0
  1  2  1  0
  3  6  1  0
  6  7  1  0
M  END

> <chembl_id>
CHEMBL237711

> <chembl_pref_name>
None

$$$$

     RDKit          2D

  9  9  0  0  0  0  0  0  0  0999 V2000
    0.2538   -2.0537    0.0000 Cl  0  0  0  0  0  0  0  0  0  0  0  0
    0.9683    0.0088    0.0000 N   0  0  0  0  0  0  0  0  0  0  0  0
    0.9683   -0.8162    0.0000 N   0  0  0  0  0  0  0  0  0  0  0  0
    0.2538    1.2463    0.0000 N   0  0  0  0  0  0  0  0  0  0  0  0
   -0.4606    1.6588    0.0000 N   0  0  0  0  0  0  0  0  0  0  0  0
    0.2538    0.4213    0.0000 C   0  0  0  0  0  0  0  0  0  0  0  0
    0.2538   -1.2287    0.0000 C   0  0  0  0  0  0  0  0  0  0  0  0
   -0.4606    0.0088    0.0000 C   0  0  0  0  0  0  0  0  0  0  0  0
   -0.4606   -0.8162    0.0000 C   0  0  0  0  0  0  0  0  0  0  0  0
  1  7  1  0
  2  3  2  0
  2  6  1  0
  3  7  1  0
  4  5  1  0
  4  6  1  0
  6  8  2  0
  7  9  2  0
  8  9  1  0
M  END

> <chembl_id>
CHEMBL1307732

> <chembl_pref_name>
None

$$$$

     RDKit          2D

  9  9  0  0  0  0  0  0  0  0999 V2000
    1.4167   -5.8667    0.0000 N   0  0  0  0  0  0  0  0  0  0  0  0
    1.4167   -4.6667    0.0000 C   0  0  0  0  0  0  0  0  0  0  0  0
    1.9417   -4.9667    0.0000 C   0  0  0  0  0  0  0  0  0  0  0  0
    1.9417   -5.5667    0.0000 C   0  0  0  0  0  0  0  0  0  0  0  0
    0.9042   -4.9667    0.0000 C   0  0  0  0  0  0  0  0  0  0  0  0
    0.9042   -5.5667    0.0000 C   0  0  0  0  0  0  0  0  0  0  0  0
    2.4542   -4.6625    0.0000 O   0  0  0  0  0  0  0  0  0  0  0  0
    1.4167   -4.0667    0.0000 C   0  0  0  0  0  0  0  0  0  0  0  0
    0.3792   -5.8667    0.0000 C   0  0  0  0  0  0  0  0  0  0  0  0
  2  5  1  0
  3  4  1  0
  4  1  2  0
  5  6  2  0
  6  1  1  0
  7  3  1  0
  8  2  1  0
  9  6  1  0
  3  2  2  0
M  END

> <chembl_id>
CHEMBL424648

> <chembl_pref_name>
None

$$$$

     RDKit          2D

 10 10  0  0  0  0  0  0  0  0999 V2000
    0.8042   -1.9167    0.0000 C   0  0  0  0  0  0  0  0  0  0  0  0
    0.8042   -2.7500    0.0000 C   0  0  0  0  0  0  0  0  0  0  0  0
    0.0875   -1.5042    0.0000 C   0  0  0  0  0  0  0  0  0  0  0  0
    1.5167   -3.1625    0.0000 O   0  0  0  0  0  0  0  0  0  0  0  0
    1.5167   -1.5042    0.0000 C   0  0  0  0  0  0  0  0  0  0  0  0
    2.2292   -1.9125    0.0000 O   0  0  0  0  0  0  0  0  0  0  0  0
   -0.6250   -2.7500    0.0000 C   0  0  0  0  0  0  0  0  0  0  0  0
    0.0875   -3.1625    0.0000 C   0  0  0  0  0  0  0  0  0  0  0  0
   -0.6250   -1.9250    0.0000 C   0  0  0  0  0  0  0  0  0  0  0  0
    0.0792   -0.6792    0.0000 C   0  0  0  0  0  0  0  0  0  0  0  0
  2  1  1  0
  3  1  2  0
  4  2  1  0
  5  1  1  0
  6  5  1  0
  7  9  2  0
  8  2  2  0
  9  3  1  0
 10  3  1  0
  8  7  1  0
M  END

> <chembl_id>
CHEMBL41656

> <chembl_pref_name>
None

$$$$
 
     RDKit          2D

  9  9  0  0  0  0  0  0  0  0999 V2000
   26.4968   -2.5836    0.0000 C   0  0  0  0  0  0  0  0  0  0  0  0
   26.4968   -3.4008    0.0000 C   0  0  0  0  0  0  0  0  0  0  0  0
   27.2021   -3.8053    0.0000 N   0  0  0  0  0  0  0  0  0  0  0  0
   27.9074   -3.4008    0.0000 C   0  0  0  0  0  0  0  0  0  0  0  0
   27.9074   -2.5836    0.0000 N   0  0  0  0  0  0  0  0  0  0  0  0
   27.2021   -2.1709    0.0000 C   0  0  0  0  0  0  0  0  0  0  0  0
   27.2021   -1.3537    0.0000 O   0  0  0  0  0  0  0  0  0  0  0  0
   28.6145   -3.8105    0.0000 O   0  0  0  0  0  0  0  0  0  0  0  0
   27.2021   -4.6225    0.0000 N   0  0  0  0  0  0  0  0  0  0  0  0
  1  2  2  0
  1  6  1  0
  2  3  1  0
  3  4  1  0
  4  5  1  0
  5  6  1  0
  6  7  2  0
  4  8  2  0
  3  9  1  0
M  END

> <chembl_id>
CHEMBL4759876

> <chembl_pref_name>
None

$$$$

     RDKit          2D

 10 11  0  0  0  0  0  0  0  0999 V2000
    2.0093    0.1452    0.0000 N   0  0  0  0  0  0  0  0  0  0  0  0
    2.2393   -1.3069    0.0000 N   0  0  0  0  0  0  0  0  0  0  0  0
    3.2788   -0.2673    0.0000 C   0  0  0  0  0  0  0  0  0  0  0  0
    3.2788    0.5577    0.0000 C   0  0  0  0  0  0  0  0  0  0  0  0
    2.4942   -0.5222    0.0000 C   0  0  0  0  0  0  0  0  0  0  0  0
    2.4942    0.8126    0.0000 C   0  0  0  0  0  0  0  0  0  0  0  0
    3.9933   -0.6798    0.0000 C   0  0  0  0  0  0  0  0  0  0  0  0
    3.9933    0.9702    0.0000 C   0  0  0  0  0  0  0  0  0  0  0  0
    4.7078   -0.2673    0.0000 C   0  0  0  0  0  0  0  0  0  0  0  0
    4.7078    0.5577    0.0000 C   0  0  0  0  0  0  0  0  0  0  0  0
  1  5  2  0
  1  6  1  0
  2  5  1  0
  3  4  1  0
  3  5  1  0
  3  7  2  0
  4  6  1  0
  4  8  2  0
  7  9  1  0
  8 10  1  0
  9 10  2  0
M  END

> <chembl_id>
CHEMBL1617729

> <chembl_pref_name>
None

$$$$

     RDKit          2D

 10 10  0  0  0  0  0  0  0  0999 V2000
    4.0250   -2.2667    0.0000 N   0  0  0  0  0  0  0  0  0  0  0  0
    4.7375   -1.8542    0.0000 C   0  0  0  0  0  0  0  0  0  0  0  0
    5.4500   -2.2667    0.0000 C   0  0  0  0  0  0  0  0  0  0  0  0
    4.0250   -3.0917    0.0000 C   0  0  0  0  0  0  0  0  0  0  0  0
    4.7375   -3.5042    0.0000 N   0  0  0  0  0  0  0  0  0  0  0  0
    5.4500   -3.0917    0.0000 C   0  0  0  0  0  0  0  0  0  0  0  0
    6.1542   -1.8542    0.0000 C   0  0  0  0  0  0  0  0  0  0  0  0
    6.8750   -1.4417    0.0000 N   0  0  0  0  0  0  0  0  0  0  0  0
    4.7375   -1.0292    0.0000 O   0  0  0  0  0  0  0  0  0  0  0  0
    3.3125   -3.5042    0.0000 O   0  0  0  0  0  0  0  0  0  0  0  0
  2  1  2  0
  3  2  1  0
  4  1  1  0
  5  4  2  0
  6  5  1  0
  7  3  1  0
  8  7  3  0
  9  2  1  0
 10  4  1  0
  3  6  2  0
M  END

> <chembl_id>
CHEMBL443038

> <chembl_pref_name>
None

$$$$

     RDKit          2D

 11 12  0  0  0  0  0  0  0  0999 V2000
    3.3034  -11.0270    0.0000 C   0  0  0  0  0  0  0  0  0  0  0  0
    3.3022  -11.8513    0.0000 C   0  0  0  0  0  0  0  0  0  0  0  0
    4.0145  -12.2627    0.0000 C   0  0  0  0  0  0  0  0  0  0  0  0
    4.0127  -10.6156    0.0000 C   0  0  0  0  0  0  0  0  0  0  0  0
    4.7255  -11.0233    0.0000 C   0  0  0  0  0  0  0  0  0  0  0  0
    4.7303  -11.8513    0.0000 C   0  0  0  0  0  0  0  0  0  0  0  0
    5.5194  -12.1027    0.0000 C   0  0  0  0  0  0  0  0  0  0  0  0
    6.0022  -11.4298    0.0000 C   0  0  0  0  0  0  0  0  0  0  0  0
    5.5115  -10.7629    0.0000 N   0  0  0  0  0  0  0  0  0  0  0  0
    6.8243  -11.4250    0.0000 O   0  0  0  0  0  0  0  0  0  0  0  0
    2.5913  -10.6161    0.0000 O   0  0  0  0  0  0  0  0  0  0  0  0
  1  2  2  0
  2  3  1  0
  3  6  2  0
  5  4  2  0
  4  1  1  0
  5  6  1  0
  6  7  1  0
  7  8  1  0
  8  9  1  0
  9  5  1  0
  8 10  2  0
  1 11  1  0
M  END

> <chembl_id>
CHEMBL3218380

> <chembl_pref_name>
None

$$$$

     RDKit          2D

 11 11  0  0  0  0  0  0  0  0999 V2000
   20.3869   -7.2911    0.0000 C   0  0  0  0  0  0  0  0  0  0  0  0
   20.3857   -8.1194    0.0000 C   0  0  0  0  0  0  0  0  0  0  0  0
   21.1014   -8.5327    0.0000 N   0  0  0  0  0  0  0  0  0  0  0  0
   21.8185   -8.1189    0.0000 C   0  0  0  0  0  0  0  0  0  0  0  0
   21.8157   -7.2875    0.0000 C   0  0  0  0  0  0  0  0  0  0  0  0
   21.0996   -6.8779    0.0000 C   0  0  0  0  0  0  0  0  0  0  0  0
   22.5345   -8.5307    0.0000 O   0  0  0  0  0  0  0  0  0  0  0  0
   21.1012   -9.3585    0.0000 C   0  0  0  0  0  0  0  0  0  0  0  0
   23.2490   -8.1166    0.0000 C   0  0  0  0  0  0  0  0  0  0  0  0
   21.0928   -6.0562    0.0000 C   0  0  0  0  0  0  0  0  0  0  0  0
   21.0903   -5.2303    0.0000 N   0  0  0  0  0  0  0  0  0  0  0  0
  1  2  2  0
  2  3  1  0
  3  4  2  0
  4  5  1  0
  5  6  2  0
  6  1  1  0
  4  7  1  0
  3  8  1  0
  7  9  1  0
 10 11  3  0
  6 10  1  0
M  CHG  1   3   1
M  END

> <chembl_id>
CHEMBL3558907

> <chembl_pref_name>
None

$$$$

     RDKit          2D

 10 10  0  0  0  0  0  0  0  0999 V2000
    7.9236  -22.6291    0.0000 C   0  0  0  0  0  0  0  0  0  0  0  0
    7.9224  -23.4565    0.0000 C   0  0  0  0  0  0  0  0  0  0  0  0
    8.6372  -23.8694    0.0000 C   0  0  0  0  0  0  0  0  0  0  0  0
    9.3537  -23.4560    0.0000 C   0  0  0  0  0  0  0  0  0  0  0  0
    9.3508  -22.6255    0.0000 C   0  0  0  0  0  0  0  0  0  0  0  0
    8.6354  -22.2164    0.0000 C   0  0  0  0  0  0  0  0  0  0  0  0
    8.6330  -21.3914    0.0000 C   0  0  0  0  0  0  0  0  0  0  0  0
   10.0637  -22.2103    0.0000 C   0  0  0  0  0  0  0  0  0  0  0  0
   10.0688  -23.8674    0.0000 C   0  0  0  0  0  0  0  0  0  0  0  0
    7.2076  -23.8684    0.0000 C   0  0  0  0  0  0  0  0  0  0  0  0
  2  3  1  0
  5  6  2  0
  6  1  1  0
  1  2  2  0
  6  7  1  0
  3  4  2  0
  5  8  1  0
  4  9  1  0
  4  5  1  0
  2 10  1  0
M  END

> <chembl_id>
CHEMBL1797133

> <chembl_pref_name>
None

$$$$

     RDKit          2D

 13 15  0  0  0  0  0  0  0  0999 V2000
    6.9901   -4.7380    0.0000 C   0  0  0  0  0  0  0  0  0  0  0  0
    6.9890   -5.5576    0.0000 C   0  0  0  0  0  0  0  0  0  0  0  0
    7.6970   -5.9665    0.0000 C   0  0  0  0  0  0  0  0  0  0  0  0
    7.6952   -4.3292    0.0000 C   0  0  0  0  0  0  0  0  0  0  0  0
    8.4038   -4.7344    0.0000 C   0  0  0  0  0  0  0  0  0  0  0  0
    8.4041   -5.5530    0.0000 C   0  0  0  0  0  0  0  0  0  0  0  0
    9.1828   -5.8058    0.0000 C   0  0  0  0  0  0  0  0  0  0  0  0
    9.1823   -4.4813    0.0000 C   0  0  0  0  0  0  0  0  0  0  0  0
    9.6632   -5.1411    0.0000 C   0  0  0  0  0  0  0  0  0  0  0  0
    9.9942   -4.3947    0.0000 C   0  0  0  0  0  0  0  0  0  0  0  0
    9.1748   -3.6609    0.0000 H   0  0  0  0  0  0  0  0  0  0  0  0
   10.4501   -5.3489    0.0000 H   0  0  0  0  0  0  0  0  0  0  0  0
   10.6546   -3.9134    0.0000 N   0  0  0  0  0  0  0  0  0  0  0  0
  1  2  2  0
  2  3  1  0
  3  6  2  0
  5  4  2  0
  4  1  1  0
  5  6  1  0
  6  7  1  0
  7  9  1  0
  8  5  1  0
  9  8  1  0
 10  9  1  0
  8 10  1  0
  8 11  1  1
  9 12  1  1
 10 13  1  1
M  END


> <chembl_id>
CHEMBL4299973

> <chembl_pref_name>
None

$$$$

     RDKit          2D

 10 10  0  0  0  0  0  0  0  0999 V2000
    2.1426   -1.2443    0.0000 N   0  0  0  0  0  0  0  0  0  0  0  0
    0.7142   -1.2443    0.0000 N   0  0  0  0  0  0  0  0  0  0  0  0
    1.4284   -3.3088    0.0000 N   0  0  0  0  0  0  0  0  0  0  0  0
    2.8569   -2.4830    0.0000 N   0  0  0  0  0  0  0  0  0  0  0  0
    0.0000   -2.4830    0.0000 N   0  0  0  0  0  0  0  0  0  0  0  0
    1.4284    0.0000    0.0000 N   0  0  0  0  0  0  0  0  0  0  0  0
    1.4284   -2.4830    0.0000 C   0  0  0  0  0  0  0  0  0  0  0  0
    2.1426   -2.0701    0.0000 C   0  0  0  0  0  0  0  0  0  0  0  0
    0.7142   -2.0701    0.0000 C   0  0  0  0  0  0  0  0  0  0  0  0
    1.4284   -0.8370    0.0000 C   0  0  0  0  0  0  0  0  0  0  0  0
  1  8  2  0
  1 10  1  0
  2  9  1  0
  2 10  2  0
  3  7  1  0
  4  8  1  0
  5  9  1  0
  6 10  1  0
  7  8  1  0
  7  9  2  0
M  END

> <chembl_id>
CHEMBL2151966

> <chembl_pref_name>
None

$$$$

     RDKit          2D

 10 10  0  0  0  0  0  0  0  0999 V2000
   -0.6125   -3.1042    0.0000 C   0  0  0  0  0  0  0  0  0  0  0  0
   -0.0958   -3.4042    0.0000 C   0  0  0  0  0  0  0  0  0  0  0  0
   -1.1333   -3.4042    0.0000 C   0  0  0  0  0  0  0  0  0  0  0  0
    0.9417   -3.3917    0.0000 N   0  0  0  0  0  0  0  0  0  0  0  0
    0.4250   -3.1000    0.0000 C   0  0  0  0  0  0  0  0  0  0  0  0
   -0.6125   -4.3042    0.0000 C   0  0  0  0  0  0  0  0  0  0  0  0
   -0.6208   -2.5042    0.0000 C   0  0  0  0  0  0  0  0  0  0  0  0
   -1.1333   -4.0042    0.0000 C   0  0  0  0  0  0  0  0  0  0  0  0
   -0.0958   -4.0042    0.0000 C   0  0  0  0  0  0  0  0  0  0  0  0
   -1.6500   -3.1042    0.0000 C   0  0  0  0  0  0  0  0  0  0  0  0
  2  1  2  0
  3  1  1  0
  4  5  1  0
  5  2  1  0
  6  8  1  0
  7  1  1  0
  8  3  2  0
  9  2  1  0
 10  3  1  0
  9  6  2  0
M  END

> <chembl_id>
CHEMBL268979

> <chembl_pref_name>
None

$$$$

     RDKit          2D

 10 10  0  0  0  0  0  0  0  0999 V2000
    0.7500   -1.0323    0.0000 N   0  0  0  0  0  0  0  0  0  0  0  0
    1.2135    0.3943    0.0000 N   0  0  0  0  0  0  0  0  0  0  0  0
    0.0000    1.2760    0.0000 N   0  0  0  0  0  0  0  0  0  0  0  0
   -1.2135    0.3943    0.0000 N   0  0  0  0  0  0  0  0  0  0  0  0
   -0.7500   -1.0323    0.0000 C   0  0  0  0  0  0  0  0  0  0  0  0
   -1.6281   -2.2462    0.0000 C   0  0  0  0  0  0  0  0  0  0  0  0
   -1.0157   -3.6164    0.0000 N   0  0  0  0  0  0  0  0  0  0  0  0
   -1.8953   -4.8324    0.0000 C   0  0  0  0  0  0  0  0  0  0  0  0
   -1.2829   -6.2026    0.0000 C   0  0  0  0  0  0  0  0  0  0  0  0
   -1.9862   -7.1749    0.0000 N   0  0  0  0  0  0  0  0  0  0  0  0
  1  2  1  0
  5  6  1  0
  6  7  1  0
  7  8  1  0
  2  3  2  0
  8  9  1  0
  3  4  1  0
  9 10  1  0
  4  5  2  0
  5  1  1  0
M  END

> <chembl_id>
CHEMBL1963323

> <chembl_pref_name>
None

$$$$

     RDKit          2D

  9  9  0  0  0  0  0  0  0  0999 V2000
   17.4499  -17.8916    0.0000 C   0  0  0  0  0  0  0  0  0  0  0  0
   18.2671  -17.8916    0.0000 C   0  0  0  0  0  0  0  0  0  0  0  0
   18.5215  -17.1149    0.0000 C   0  0  0  0  0  0  0  0  0  0  0  0
   17.8585  -16.6327    0.0000 S   0  0  0  0  0  0  0  0  0  0  0  0
   17.1997  -17.1149    0.0000 C   0  0  0  0  0  0  0  0  0  0  0  0
   18.7466  -18.5532    0.0000 C   0  0  0  0  0  0  0  0  0  0  0  0
   18.4134  -19.2994    0.0000 O   0  0  0  0  0  0  0  0  0  0  0  0
   19.5595  -18.4688    0.0000 O   0  0  0  0  0  0  0  0  0  0  0  0
   16.4224  -16.8627    0.0000 C   0  0  0  0  0  0  0  0  0  0  0  0
  1  2  1  0
  2  3  2  0
  3  4  1  0
  4  5  1  0
  5  1  2  0
  2  6  1  0
  6  7  1  0
  6  8  2  0
  5  9  1  0
M  END

> <chembl_id>
CHEMBL4276865

> <chembl_pref_name>
None

$$$$

     RDKit          2D

  7  7  0  0  0  0  0  0  0  0999 V2000
   -4.2167  -15.2375    0.0000 S   0  0  0  0  0  0  0  0  0  0  0  0
   -3.3917  -15.2375    0.0000 C   0  0  0  0  0  0  0  0  0  0  0  0
   -3.1349  -14.4534    0.0000 C   0  0  0  0  0  0  0  0  0  0  0  0
   -3.8042  -13.9667    0.0000 N   0  0  0  0  0  0  0  0  0  0  0  0
   -4.4692  -14.4534    0.0000 C   0  0  0  0  0  0  0  0  0  0  0  0
   -2.3539  -14.1988    0.0000 C   0  0  0  0  0  0  0  0  0  0  0  0
   -2.1813  -13.3920    0.0000 O   0  0  0  0  0  0  0  0  0  0  0  0
  2  3  2  0
  3  4  1  0
  4  5  2  0
  5  1  1  0
  1  2  1  0
  6  7  2  0
  3  6  1  0
M  END

> <chembl_id>
CHEMBL225650

> <chembl_pref_name>
None

$$$$

     RDKit          2D

 10 10  0  0  0  0  0  0  0  0999 V2000
   15.3463  -17.6669    0.0000 C   0  0  0  0  0  0  0  0  0  0  0  0
   15.3451  -18.4937    0.0000 C   0  0  0  0  0  0  0  0  0  0  0  0
   16.0595  -18.9063    0.0000 C   0  0  0  0  0  0  0  0  0  0  0  0
   16.7754  -18.4932    0.0000 C   0  0  0  0  0  0  0  0  0  0  0  0
   16.7725  -17.6633    0.0000 C   0  0  0  0  0  0  0  0  0  0  0  0
   16.0577  -17.2544    0.0000 C   0  0  0  0  0  0  0  0  0  0  0  0
   16.0552  -16.4300    0.0000 O   0  0  0  0  0  0  0  0  0  0  0  0
   17.4850  -17.2484    0.0000 C   0  0  0  0  0  0  0  0  0  0  0  0
   16.0593  -19.7307    0.0000 O   0  0  0  0  0  0  0  0  0  0  0  0
   16.7731  -20.1430    0.0000 C   0  0  0  0  0  0  0  0  0  0  0  0
  2  3  1  0
  5  6  2  0
  6  1  1  0
  1  2  2  0
  6  7  1  0
  3  4  2  0
  5  8  1  0
  3  9  1  0
  4  5  1  0
  9 10  1  0
M  END

> <chembl_id>
CHEMBL224023

> <chembl_pref_name>
None

$$$$

     RDKit          2D

  9  9  0  0  0  0  0  0  0  0999 V2000
    0.0549    0.1833    0.0000 C   0  0  0  0  0  0  0  0  0  0  0  0
    0.7694   -0.2292    0.0000 C   0  0  0  0  0  0  0  0  0  0  0  0
    0.7694   -1.0542    0.0000 C   0  0  0  0  0  0  0  0  0  0  0  0
    0.0549   -1.4667    0.0000 C   0  0  0  0  0  0  0  0  0  0  0  0
   -0.6595   -1.0542    0.0000 C   0  0  0  0  0  0  0  0  0  0  0  0
   -0.6595   -0.2292    0.0000 C   0  0  0  0  0  0  0  0  0  0  0  0
    0.0549    1.0083    0.0000 C   0  0  0  0  0  0  0  0  0  0  0  0
   -0.6595    1.4208    0.0000 N   0  0  0  0  0  0  0  0  0  0  0  0
    0.7694    1.4208    0.0000 N   0  0  0  0  0  0  0  0  0  0  0  0
  1  2  2  0
  1  6  1  0
  7  1  1  0
  2  3  1  0
  3  4  2  0
  4  5  1  0
  5  6  2  0
  7  8  1  0
  7  9  2  0
M  END

> <chembl_id>
CHEMBL20936

> <chembl_pref_name>
BENZAMIDINE

$$$$

     RDKit          2D

 10 10  0  0  0  0  0  0  0  0999 V2000
   -2.9656   -0.8181    0.0000 N   0  0  0  0  0  0  0  0  0  0  0  0
   -3.3781   -2.0877    0.0000 N   0  0  0  0  0  0  0  0  0  0  0  0
   -1.4339   -4.8436    0.0000 N   0  0  0  0  0  0  0  0  0  0  0  0
   -2.5531   -2.0877    0.0000 C   0  0  0  0  0  0  0  0  0  0  0  0
   -2.2981   -1.3030    0.0000 C   0  0  0  0  0  0  0  0  0  0  0  0
   -3.6330   -1.3030    0.0000 C   0  0  0  0  0  0  0  0  0  0  0  0
   -2.0682   -2.7551    0.0000 C   0  0  0  0  0  0  0  0  0  0  0  0
   -2.9656    0.0069    0.0000 C   0  0  0  0  0  0  0  0  0  0  0  0
   -2.4037   -3.5088    0.0000 C   0  0  0  0  0  0  0  0  0  0  0  0
   -1.9188   -4.1762    0.0000 C   0  0  0  0  0  0  0  0  0  0  0  0
  1  5  1  0
  1  6  1  0
  1  8  1  0
  2  4  1  0
  2  6  2  0
  3 10  3  0
  4  5  2  0
  4  7  1  0
  7  9  2  0
  9 10  1  0
M  END

> <chembl_id>
CHEMBL1975763

> <chembl_pref_name>
None

$$$$

     RDKit          2D

 10 11  0  0  0  0  0  0  0  0999 V2000
   -0.1250   -4.2292    0.0000 C   0  0  0  0  0  0  0  0  0  0  0  0
   -0.1333   -3.3417    0.0000 C   0  0  0  0  0  0  0  0  0  0  0  0
    0.7167   -4.5000    0.0000 N   0  0  0  0  0  0  0  0  0  0  0  0
   -0.8958   -2.9000    0.0000 C   0  0  0  0  0  0  0  0  0  0  0  0
   -0.8958   -4.6667    0.0000 C   0  0  0  0  0  0  0  0  0  0  0  0
   -1.6583   -3.3417    0.0000 C   0  0  0  0  0  0  0  0  0  0  0  0
    1.2417   -3.7750    0.0000 C   0  0  0  0  0  0  0  0  0  0  0  0
   -1.6583   -4.2292    0.0000 C   0  0  0  0  0  0  0  0  0  0  0  0
   -2.4250   -2.9000    0.0000 O   0  0  0  0  0  0  0  0  0  0  0  0
    0.7125   -3.0625    0.0000 C   0  0  0  0  0  0  0  0  0  0  0  0
  2  1  1  0
  3  1  1  0
  4  2  2  0
  5  1  2  0
  6  8  2  0
  7  3  1  0
  8  5  1  0
  9  6  1  0
 10  2  1  0
 10  7  1  0
  6  4  1  0
M  END

> <chembl_id>
CHEMBL19331

> <chembl_pref_name>
None

$$$$

     RDKit          2D

 10 10  0  0  0  0  0  0  0  0999 V2000
    5.9849   -7.4531    0.0000 C   0  0  0  0  0  0  0  0  0  0  0  0
    5.9849   -8.2781    0.0000 C   0  0  0  0  0  0  0  0  0  0  0  0
    6.6966   -8.6906    0.0000 C   0  0  0  0  0  0  0  0  0  0  0  0
    6.6966   -9.5156    0.0000 C   0  0  0  0  0  0  0  0  0  0  0  0
    5.9849   -9.9281    0.0000 C   0  0  0  0  0  0  0  0  0  0  0  0
    5.2691   -9.5156    0.0000 C   0  0  0  0  0  0  0  0  0  0  0  0
    5.2691   -8.6906    0.0000 C   0  0  0  0  0  0  0  0  0  0  0  0
    6.6966   -7.0406    0.0000 N   0  0  0  0  0  0  0  0  0  0  0  0
    6.6966   -6.2156    0.0000 O   0  0  0  0  0  0  0  0  0  0  0  0
    5.9849  -10.7531    0.0000 F   0  0  0  0  0  0  0  0  0  0  0  0
  1  2  1  0
  2  3  1  0
  3  4  2  0
  4  5  1  0
  5  6  2  0
  6  7  1  0
  2  7  2  0
  8  9  1  0
  1  8  2  0
  5 10  1  0
M  END

> <chembl_id>
CHEMBL2420346

> <chembl_pref_name>
None

$$$$

     RDKit          2D

  7  7  0  0  0  0  0  0  0  0999 V2000
    1.1167   -3.9917    0.0000 S   0  0  0  0  0  0  0  0  0  0  0  0
    1.7875   -4.4750    0.0000 C   0  0  0  0  0  0  0  0  0  0  0  0
    0.4417   -4.4750    0.0000 C   0  0  0  0  0  0  0  0  0  0  0  0
    1.5292   -5.2667    0.0000 C   0  0  0  0  0  0  0  0  0  0  0  0
    0.7000   -5.2667    0.0000 C   0  0  0  0  0  0  0  0  0  0  0  0
    3.1875   -4.7750    0.0000 S   0  0  0  0  0  0  0  0  0  0  0  0
    2.5667   -4.2167    0.0000 C   0  0  0  0  0  0  0  0  0  0  0  0
  2  1  1  0
  3  1  1  0
  4  2  2  0
  5  3  2  0
  6  7  1  0
  7  2  1  0
  4  5  1  0
M  END

> <chembl_id>
CHEMBL152603

> <chembl_pref_name>
None

$$$$

     RDKit          2D

 11 12  0  0  1  0  0  0  0  0999 V2000
    6.1625   -2.6250    0.0000 N   0  0  0  0  0  0  0  0  0  0  0  0
    4.7375   -1.8000    0.0000 C   0  0  0  0  0  0  0  0  0  0  0  0
    4.7292   -2.6250    0.0000 C   0  0  0  0  0  0  0  0  0  0  0  0
    5.4500   -3.0375    0.0000 C   0  0  0  0  0  0  0  0  0  0  0  0
    5.4500   -1.3792    0.0000 C   0  0  0  0  0  0  0  0  0  0  0  0
    6.1625   -1.8000    0.0000 C   0  0  0  0  0  0  0  0  0  0  0  0
    4.0167   -1.3875    0.0000 C   0  0  0  0  0  0  0  0  0  0  0  0
    4.0167   -3.0375    0.0000 C   0  0  0  0  0  0  0  0  0  0  0  0
    6.8792   -1.3875    0.0000 C   0  0  0  0  0  0  0  0  0  0  0  0
    3.3042   -1.8000    0.0000 C   0  0  0  0  0  0  0  0  0  0  0  0
    3.3042   -2.6250    0.0000 C   0  0  0  0  0  0  0  0  0  0  0  0
  2  5  1  0
  3  4  1  0
  4  1  1  0
  5  6  1  0
  6  1  1  0
  7  2  2  0
  8  3  2  0
  6  9  1  6
 10  7  1  0
 11  8  1  0
  3  2  1  0
 11 10  2  0
M  END

> <chembl_id>
CHEMBL294079

> <chembl_pref_name>
None

$$$$

     RDKit          2D

  9  9  0  0  0  0  0  0  0  0999 V2000
    2.6917   -3.5875    0.0000 N   0  0  0  0  0  0  0  0  0  0  0  0
    3.4125   -4.0000    0.0000 C   0  0  0  0  0  0  0  0  0  0  0  0
    1.9792   -4.8292    0.0000 C   0  0  0  0  0  0  0  0  0  0  0  0
    1.9792   -4.0000    0.0000 C   0  0  0  0  0  0  0  0  0  0  0  0
    2.6917   -5.2417    0.0000 C   0  0  0  0  0  0  0  0  0  0  0  0
    3.4125   -4.8292    0.0000 C   0  0  0  0  0  0  0  0  0  0  0  0
    4.1250   -3.5792    0.0000 O   0  0  0  0  0  0  0  0  0  0  0  0
    0.5542   -4.8292    0.0000 N   0  0  0  0  0  0  0  0  0  0  0  0
    1.2667   -5.2417    0.0000 C   0  0  0  0  0  0  0  0  0  0  0  0
  2  1  2  0
  3  4  2  0
  4  1  1  0
  5  3  1  0
  6  2  1  0
  7  2  1  0
  8  9  1  0
  9  3  1  0
  5  6  2  0
M  END

> <chembl_id>
CHEMBL323807

> <chembl_pref_name>
None

$$$$

     RDKit          2D

 11 11  0  0  0  0  0  0  0  0999 V2000
    8.8817    1.3380    0.0000 C   0  0  0  0  0  0  0  0  0  0  0  0
    8.8753    2.1633    0.0000 N   0  0  0  0  0  0  0  0  0  0  0  0
    9.5997    0.9308    0.0000 N   0  0  0  0  0  0  0  0  0  0  0  0
   10.3113    1.3490    0.0000 C   0  0  0  0  0  0  0  0  0  0  0  0
   11.0252    0.9395    0.0000 C   0  0  0  0  0  0  0  0  0  0  0  0
   11.7364    1.3571    0.0000 C   0  0  0  0  0  0  0  0  0  0  0  0
   11.7304    2.1833    0.0000 C   0  0  0  0  0  0  0  0  0  0  0  0
   11.0074    2.5903    0.0000 C   0  0  0  0  0  0  0  0  0  0  0  0
   10.2992    2.1704    0.0000 C   0  0  0  0  0  0  0  0  0  0  0  0
    8.1702    0.9198    0.0000 C   0  0  0  0  0  0  0  0  0  0  0  0
   12.4541    0.9497    0.0000 N   0  0  0  0  0  0  0  0  0  0  0  0
  5  6  1  0
  1  2  2  0
  6  7  2  0
  3  4  1  0
  7  8  1  0
  8  9  2  0
  9  4  1  0
  4  5  2  0
  1 10  1  0
  1  3  1  0
  6 11  1  0
M  END

> <chembl_id>
CHEMBL454459

> <chembl_pref_name>
None

$$$$

     RDKit          2D

 10 10  0  0  0  0  0  0  0  0999 V2000
    9.1435   -7.8700    0.0000 C   0  0  0  0  0  0  0  0  0  0  0  0
    9.1423   -8.6973    0.0000 C   0  0  0  0  0  0  0  0  0  0  0  0
    9.8571   -9.1101    0.0000 C   0  0  0  0  0  0  0  0  0  0  0  0
   10.5735   -8.6968    0.0000 C   0  0  0  0  0  0  0  0  0  0  0  0
   10.5706   -7.8664    0.0000 C   0  0  0  0  0  0  0  0  0  0  0  0
    9.8553   -7.4573    0.0000 C   0  0  0  0  0  0  0  0  0  0  0  0
   11.2835   -7.4513    0.0000 C   0  0  0  0  0  0  0  0  0  0  0  0
   11.9994   -7.8610    0.0000 C   0  0  0  0  0  0  0  0  0  0  0  0
   12.7122   -7.4459    0.0000 C   0  0  0  0  0  0  0  0  0  0  0  0
   13.4282   -7.8556    0.0000 O   0  0  0  0  0  0  0  0  0  0  0  0
  2  3  1  0
  5  6  2  0
  6  1  1  0
  1  2  2  0
  5  7  1  0
  3  4  2  0
  7  8  2  0
  8  9  1  0
  4  5  1  0
  9 10  2  0
M  END

> <chembl_id>
CHEMBL293492

> <chembl_pref_name>
CINNAMALDEHYDE

$$$$

     RDKit          2D

  9  8  0  0  0  0  0  0  0  0999 V2000
    3.7135   -1.0100    0.0000 Cl  0  0  0  0  0  0  0  0  0  0  0  0
    0.7500   -1.0323    0.0000 C   0  0  0  0  0  0  0  0  0  0  0  0
    1.2135    0.3943    0.0000 N   0  0  0  0  0  0  0  0  0  0  0  0
    0.0000    1.2760    0.0000 C   0  0  0  0  0  0  0  0  0  0  0  0
   -1.2135    0.3943    0.0000 N   0  0  0  0  0  0  0  0  0  0  0  0
   -0.7500   -1.0323    0.0000 C   0  0  0  0  0  0  0  0  0  0  0  0
   -1.6332   -2.2426    0.0000 C   0  0  0  0  0  0  0  0  0  0  0  0
   -3.1255   -2.0835    0.0000 C   0  0  0  0  0  0  0  0  0  0  0  0
   -3.8329   -3.0529    0.0000 N   0  0  0  0  0  0  0  0  0  0  0  0
  2  3  1  0
  3  4  1  0
  4  5  2  0
  2  6  2  0
  5  6  1  0
  6  7  1  0
  7  8  1  0
  8  9  1  0
M  END

> <chembl_id>
CHEMBL535166

> <chembl_pref_name>
HISTAMINE HYDROCHLORIDE

$$$$

     RDKit          2D

 10 10  0  0  0  0  0  0  0  0999 V2000
    1.8250    0.5875    0.0000 N   0  0  0  0  0  0  0  0  0  0  0  0
    1.1042    0.1750    0.0000 N   0  0  0  0  0  0  0  0  0  0  0  0
    2.5417    0.1833    0.0000 O   0  0  0  0  0  0  0  0  0  0  0  0
    1.8167    1.4125    0.0000 O   0  0  0  0  0  0  0  0  0  0  0  0
    1.1125   -0.6500    0.0000 C   0  0  0  0  0  0  0  0  0  0  0  0
    1.8292   -1.0625    0.0000 C   0  0  0  0  0  0  0  0  0  0  0  0
    0.4000   -1.0625    0.0000 C   0  0  0  0  0  0  0  0  0  0  0  0
    0.4000   -1.8917    0.0000 C   0  0  0  0  0  0  0  0  0  0  0  0
    1.8292   -1.8917    0.0000 C   0  0  0  0  0  0  0  0  0  0  0  0
    1.1125   -2.3042    0.0000 C   0  0  0  0  0  0  0  0  0  0  0  0
  2  1  1  0
  3  1  1  0
  4  1  2  0
  5  2  1  0
  6  5  2  0
  7  5  1  0
  8  7  2  0
  9  6  1  0
 10  8  1  0
  9 10  2  0
M  CHG  2   1   1   3  -1
M  END

> <chembl_id>
CHEMBL96807

> <chembl_pref_name>
NITROANILIDE

$$$$

     RDKit          2D

 10 11  0  0  0  0  0  0  0  0999 V2000
   14.2856   -8.3102    0.0000 C   0  0  0  0  0  0  0  0  0  0  0  0
   14.2844   -9.1360    0.0000 C   0  0  0  0  0  0  0  0  0  0  0  0
   14.9979   -9.5482    0.0000 N   0  0  0  0  0  0  0  0  0  0  0  0
   14.9961   -7.8981    0.0000 C   0  0  0  0  0  0  0  0  0  0  0  0
   15.7103   -8.3065    0.0000 C   0  0  0  0  0  0  0  0  0  0  0  0
   15.7150   -9.1315    0.0000 C   0  0  0  0  0  0  0  0  0  0  0  0
   16.5011   -9.3819    0.0000 C   0  0  0  0  0  0  0  0  0  0  0  0
   16.9823   -8.7116    0.0000 N   0  0  0  0  0  0  0  0  0  0  0  0
   16.4934   -8.0470    0.0000 C   0  0  0  0  0  0  0  0  0  0  0  0
   16.7432   -7.2623    0.0000 O   0  0  0  0  0  0  0  0  0  0  0  0
  5  6  1  0
  2  3  1  0
  3  6  2  0
  1  2  2  0
  5  4  2  0
  6  7  1  0
  7  8  1  0
  8  9  1  0
  9  5  1  0
  4  1  1  0
  9 10  2  0
M  END

> <chembl_id>
CHEMBL2064702

> <chembl_pref_name>
None

$$$$

     RDKit          2D

 11 12  0  0  0  0  0  0  0  0999 V2000
   18.5231   -7.8687    0.0000 C   0  0  0  0  0  0  0  0  0  0  0  0
   18.5219   -8.6972    0.0000 C   0  0  0  0  0  0  0  0  0  0  0  0
   19.2376   -9.1105    0.0000 N   0  0  0  0  0  0  0  0  0  0  0  0
   19.2358   -7.4554    0.0000 C   0  0  0  0  0  0  0  0  0  0  0  0
   20.6629   -6.6233    0.0000 O   0  0  0  0  0  0  0  0  0  0  0  0
   20.6660   -7.4494    0.0000 C   0  0  0  0  0  0  0  0  0  0  0  0
   19.9522   -7.8640    0.0000 C   0  0  0  0  0  0  0  0  0  0  0  0
   19.9544   -8.6850    0.0000 C   0  0  0  0  0  0  0  0  0  0  0  0
   20.6688   -9.0975    0.0000 C   0  0  0  0  0  0  0  0  0  0  0  0
   21.3827   -8.6828    0.0000 C   0  0  0  0  0  0  0  0  0  0  0  0
   21.3821   -7.8556    0.0000 N   0  0  0  0  0  0  0  0  0  0  0  0
  6  5  2  0
  6  7  1  0
  2  3  1  0
  3  8  2  0
  1  2  2  0
  7  4  2  0
  4  1  1  0
  6 11  1  0
  7  8  1  0
  8  9  1  0
  9 10  1  0
 10 11  1  0
M  END

> <chembl_id>
CHEMBL2064703

> <chembl_pref_name>
None

$$$$

     RDKit          2D

 10 10  0  0  0  0  0  0  0  0999 V2000
    1.7917   -0.4875    0.0000 N   0  0  0  0  0  0  0  0  0  0  0  0
    1.7917   -1.3125    0.0000 C   0  0  0  0  0  0  0  0  0  0  0  0
    2.5042   -0.0750    0.0000 C   0  0  0  0  0  0  0  0  0  0  0  0
    3.2167   -0.4875    0.0000 C   0  0  0  0  0  0  0  0  0  0  0  0
    3.2167   -1.3125    0.0000 C   0  0  0  0  0  0  0  0  0  0  0  0
    2.5042   -1.7250    0.0000 N   0  0  0  0  0  0  0  0  0  0  0  0
    3.9417   -1.7250    0.0000 C   0  0  0  0  0  0  0  0  0  0  0  0
    4.5944   -2.0964    0.0000 C   0  0  0  0  0  0  0  0  0  0  0  0
    1.0792   -1.7250    0.0000 O   0  0  0  0  0  0  0  0  0  0  0  0
    2.5042    0.7500    0.0000 O   0  0  0  0  0  0  0  0  0  0  0  0
  2  1  2  0
  3  1  1  0
  4  3  2  0
  5  4  1  0
  6  2  1  0
  7  5  1  0
  8  7  3  0
  9  2  1  0
 10  3  1  0
  6  5  2  0
M  END

> <chembl_id>
CHEMBL22911

> <chembl_pref_name>
None

$$$$

     RDKit          2D

 10 10  0  0  0  0  0  0  0  0999 V2000
    3.7750   -2.9542    0.0000 N   0  0  0  0  0  0  0  0  0  0  0  0
    4.0250   -3.7417    0.0000 C   0  0  0  0  0  0  0  0  0  0  0  0
    4.8500   -3.7417    0.0000 C   0  0  0  0  0  0  0  0  0  0  0  0
    4.4375   -2.4750    0.0000 O   0  0  0  0  0  0  0  0  0  0  0  0
    5.1042   -2.9542    0.0000 C   0  0  0  0  0  0  0  0  0  0  0  0
    3.5417   -4.4125    0.0000 C   0  0  0  0  0  0  0  0  0  0  0  0
    2.7167   -4.3167    0.0000 O   0  0  0  0  0  0  0  0  0  0  0  0
    5.8917   -2.7042    0.0000 C   0  0  0  0  0  0  0  0  0  0  0  0
    6.5042   -3.2542    0.0000 O   0  0  0  0  0  0  0  0  0  0  0  0
    3.8750   -5.1542    0.0000 C   0  0  0  0  0  0  0  0  0  0  0  0
  2  1  2  0
  3  2  1  0
  4  1  1  0
  5  4  1  0
  6  2  1  0
  7  6  2  0
  8  5  1  0
  9  8  1  0
 10  6  1  0
  3  5  2  0
M  END

> <chembl_id>
CHEMBL344611

> <chembl_pref_name>
None

$$$$

     RDKit          2D

 10 10  0  0  0  0  0  0  0  0999 V2000
    2.8257   -2.5795    0.0000 C   0  0  0  0  0  0  0  0  0  0  0  0
    2.8246   -3.3990    0.0000 C   0  0  0  0  0  0  0  0  0  0  0  0
    3.5326   -3.8080    0.0000 N   0  0  0  0  0  0  0  0  0  0  0  0
    4.2423   -3.3985    0.0000 C   0  0  0  0  0  0  0  0  0  0  0  0
    4.2395   -2.5759    0.0000 C   0  0  0  0  0  0  0  0  0  0  0  0
    3.5308   -2.1706    0.0000 N   0  0  0  0  0  0  0  0  0  0  0  0
    4.9456   -2.1646    0.0000 C   0  0  0  0  0  0  0  0  0  0  0  0
    5.6549   -2.5705    0.0000 N   0  0  0  0  0  0  0  0  0  0  0  0
    4.9426   -1.3474    0.0000 O   0  0  0  0  0  0  0  0  0  0  0  0
    2.1179   -2.1711    0.0000 N   0  0  0  0  0  0  0  0  0  0  0  0
  1  2  2  0
  2  3  1  0
  3  4  2  0
  4  5  1  0
  5  6  2  0
  6  1  1  0
  5  7  1  0
  7  8  1  0
  7  9  2  0
  1 10  1  0
M  END

> <chembl_id>
CHEMBL3105647

> <chembl_pref_name>
None

$$$$

     RDKit          2D

  8  8  0  0  0  0  0  0  0  0999 V2000
   -0.4638    0.1118    0.0000 C   0  0  0  0  0  0  0  0  0  0  0  0
    0.2507    0.5243    0.0000 C   0  0  0  0  0  0  0  0  0  0  0  0
    0.9651    0.1118    0.0000 C   0  0  0  0  0  0  0  0  0  0  0  0
    0.9651   -0.7132    0.0000 C   0  0  0  0  0  0  0  0  0  0  0  0
    0.2507   -1.1257    0.0000 C   0  0  0  0  0  0  0  0  0  0  0  0
   -0.4638   -0.7132    0.0000 C   0  0  0  0  0  0  0  0  0  0  0  0
    0.2507    1.3493    0.0000 F   0  0  0  0  0  0  0  0  0  0  0  0
   -1.1783    0.5243    0.0000 O   0  0  0  0  0  0  0  0  0  0  0  0
  1  2  2  0
  1  6  1  0
  1  8  1  0
  2  3  1  0
  2  7  1  0
  3  4  2  0
  4  5  1  0
  5  6  2  0
M  END

> <chembl_id>
CHEMBL224144

> <chembl_pref_name>
None

$$$$

     RDKit          2D

 10 11  0  0  1  0  0  0  0  0999 V2000
   -3.7893  -20.2461    0.0000 C   0  0  0  0  0  0  0  0  0  0  0  0
   -3.7905  -21.0699    0.0000 C   0  0  0  0  0  0  0  0  0  0  0  0
   -3.0786  -21.4810    0.0000 C   0  0  0  0  0  0  0  0  0  0  0  0
   -3.0804  -19.8350    0.0000 C   0  0  0  0  0  0  0  0  0  0  0  0
   -2.3682  -20.2425    0.0000 C   0  0  0  0  0  0  0  0  0  0  0  0
   -2.3633  -21.0699    0.0000 C   0  0  0  0  0  0  0  0  0  0  0  0
   -1.5748  -21.3210    0.0000 C   0  0  0  0  0  0  0  0  0  0  0  0
   -1.0923  -20.6487    0.0000 C   0  0  0  0  0  0  0  0  0  0  0  0
   -1.5827  -19.9822    0.0000 C   0  0  0  0  0  0  0  0  0  0  0  0
   -1.3335  -19.1995    0.0000 O   0  0  0  0  0  0  0  0  0  0  0  0
  5  6  1  0
  2  3  1  0
  3  6  2  0
  1  2  2  0
  5  4  2  0
  6  7  1  0
  7  8  1  0
  9  8  1  0
  9  5  1  0
  4  1  1  0
  9 10  1  6
M  END

> <chembl_id>
CHEMBL383641

> <chembl_pref_name>
None

$$$$

     RDKit          2D

 11 12  0  0  0  0  0  0  0  0999 V2000
    3.9220    1.9887    0.0000 C   0  0  0  0  0  0  0  0  0  0  0  0
    3.9208    1.1624    0.0000 C   0  0  0  0  0  0  0  0  0  0  0  0
    4.6348    0.7500    0.0000 C   0  0  0  0  0  0  0  0  0  0  0  0
    4.6330    2.4010    0.0000 C   0  0  0  0  0  0  0  0  0  0  0  0
    5.3475    1.9924    0.0000 C   0  0  0  0  0  0  0  0  0  0  0  0
    5.3523    1.1669    0.0000 C   0  0  0  0  0  0  0  0  0  0  0  0
    6.1389    0.9164    0.0000 O   0  0  0  0  0  0  0  0  0  0  0  0
    6.6202    1.5871    0.0000 C   0  0  0  0  0  0  0  0  0  0  0  0
    6.1310    2.2520    0.0000 C   0  0  0  0  0  0  0  0  0  0  0  0
    6.3811    3.0371    0.0000 N   0  0  0  0  0  0  0  0  0  0  0  0
    7.1860    3.2132    0.0000 O   0  0  0  0  0  0  0  0  0  0  0  0
  1  2  2  0
  2  3  1  0
  3  6  2  0
  5  4  2  0
  4  1  1  0
  5  6  1  0
  6  7  1  0
  7  8  1  0
  8  9  1  0
  9  5  1  0
  9 10  2  0
 10 11  1  0
M  END

> <chembl_id>
CHEMBL1858144

> <chembl_pref_name>
None

$$$$

     RDKit          2D

  8  8  0  0  0  0  0  0  0  0999 V2000
    2.5542   -0.4917    0.0000 C   0  0  0  0  0  0  0  0  0  0  0  0
    1.8375   -0.9042    0.0000 C   0  0  0  0  0  0  0  0  0  0  0  0
    2.5542    0.3333    0.0000 C   0  0  0  0  0  0  0  0  0  0  0  0
    1.8375   -1.7292    0.0000 N   0  0  0  0  0  0  0  0  0  0  0  0
    3.2667    0.7500    0.0000 Cl  0  0  0  0  0  0  0  0  0  0  0  0
    1.1250    0.3333    0.0000 C   0  0  0  0  0  0  0  0  0  0  0  0
    1.1250   -0.4917    0.0000 C   0  0  0  0  0  0  0  0  0  0  0  0
    1.8375    0.7458    0.0000 C   0  0  0  0  0  0  0  0  0  0  0  0
  2  1  2  0
  3  1  1  0
  4  2  1  0
  5  3  1  0
  6  8  1  0
  7  2  1  0
  8  3  2  0
  7  6  2  0
M  END

> <chembl_id>
CHEMBL325415

> <chembl_pref_name>
3-CHLOROANILINE

$$$$

     RDKit          2D

  9  9  0  0  0  0  0  0  0  0999 V2000
   15.0361    1.7125    0.0000 C   0  0  0  0  0  0  0  0  0  0  0  0
   15.0349    0.8852    0.0000 C   0  0  0  0  0  0  0  0  0  0  0  0
   15.7497    0.4723    0.0000 C   0  0  0  0  0  0  0  0  0  0  0  0
   16.4662    0.8856    0.0000 C   0  0  0  0  0  0  0  0  0  0  0  0
   16.4633    1.7162    0.0000 C   0  0  0  0  0  0  0  0  0  0  0  0
   15.7479    2.1253    0.0000 C   0  0  0  0  0  0  0  0  0  0  0  0
   15.7455    2.9503    0.0000 C   0  0  0  0  0  0  0  0  0  0  0  0
   17.1762    2.1314    0.0000 C   0  0  0  0  0  0  0  0  0  0  0  0
   17.1813    0.4743    0.0000 C   0  0  0  0  0  0  0  0  0  0  0  0
  4  5  1  0
  2  3  1  0
  5  6  2  0
  6  1  1  0
  1  2  2  0
  6  7  1  0
  3  4  2  0
  5  8  1  0
  4  9  1  0
M  END

> <chembl_id>
CHEMBL1797279

> <chembl_pref_name>
None

$$$$

     RDKit          2D

 10 10  0  0  0  0  0  0  0  0999 V2000
   13.7107   -7.7534    0.0000 C   0  0  0  0  0  0  0  0  0  0  0  0
   13.7095   -8.5803    0.0000 C   0  0  0  0  0  0  0  0  0  0  0  0
   14.4240   -8.9928    0.0000 C   0  0  0  0  0  0  0  0  0  0  0  0
   15.1399   -8.5798    0.0000 C   0  0  0  0  0  0  0  0  0  0  0  0
   15.1370   -7.7498    0.0000 C   0  0  0  0  0  0  0  0  0  0  0  0
   14.4222   -7.3409    0.0000 C   0  0  0  0  0  0  0  0  0  0  0  0
   15.8496   -7.3349    0.0000 O   0  0  0  0  0  0  0  0  0  0  0  0
   14.4238   -9.8173    0.0000 O   0  0  0  0  0  0  0  0  0  0  0  0
   14.4197   -6.5164    0.0000 C   0  0  0  0  0  0  0  0  0  0  0  0
   15.1324   -6.1020    0.0000 O   0  0  0  0  0  0  0  0  0  0  0  0
  2  3  1  0
  5  6  2  0
  6  1  1  0
  1  2  2  0
  5  7  1  0
  3  4  2  0
  3  8  1  0
  6  9  1  0
  4  5  1  0
  9 10  2  0
M  END

> <chembl_id>
CHEMBL243587

> <chembl_pref_name>
None

$$$$

     RDKit          2D

 11 11  0  0  0  0  0  0  0  0999 V2000
    6.0667   -3.7292    0.0000 N   0  0  0  0  0  0  0  0  0  0  0  0
    5.3542   -4.1417    0.0000 C   0  0  0  0  0  0  0  0  0  0  0  0
    4.6375   -7.0358    0.0000 N   0  0  0  0  0  0  0  0  0  0  0  0
    4.6375   -6.2125    0.0000 C   0  0  0  0  0  0  0  0  0  0  0  0
    6.7792   -4.1292    0.0000 O   0  0  0  0  0  0  0  0  0  0  0  0
    6.0625   -2.9042    0.0000 O   0  0  0  0  0  0  0  0  0  0  0  0
    5.3542   -4.9750    0.0000 C   0  0  0  0  0  0  0  0  0  0  0  0
    4.6375   -5.3875    0.0000 C   0  0  0  0  0  0  0  0  0  0  0  0
    4.6375   -3.7292    0.0000 C   0  0  0  0  0  0  0  0  0  0  0  0
    3.9250   -4.1500    0.0000 C   0  0  0  0  0  0  0  0  0  0  0  0
    3.9250   -4.9750    0.0000 C   0  0  0  0  0  0  0  0  0  0  0  0
  2  1  1  0
  3  4  3  0
  4  8  1  0
  5  1  1  0
  6  1  2  0
  7  2  1  0
  8  7  2  0
  9  2  2  0
 10  9  1  0
 11 10  2  0
  8 11  1  0
M  CHG  2   1   1   5  -1
M  END

> <chembl_id>
CHEMBL57012

> <chembl_pref_name>
None

$$$$

     RDKit          2D

  9  9  0  0  0  0  0  0  0  0999 V2000
    9.2435   -9.6490    0.0000 C   0  0  0  0  0  0  0  0  0  0  0  0
    9.2423  -10.4763    0.0000 N   0  0  0  0  0  0  0  0  0  0  0  0
    9.9571  -10.8891    0.0000 C   0  0  0  0  0  0  0  0  0  0  0  0
   10.6734  -10.4759    0.0000 C   0  0  0  0  0  0  0  0  0  0  0  0
   10.6705   -9.6453    0.0000 C   0  0  0  0  0  0  0  0  0  0  0  0
    9.9553   -9.2363    0.0000 C   0  0  0  0  0  0  0  0  0  0  0  0
   11.3835   -9.2302    0.0000 C   0  0  0  0  0  0  0  0  0  0  0  0
   12.0994   -9.6399    0.0000 O   0  0  0  0  0  0  0  0  0  0  0  0
   11.3803   -8.4053    0.0000 C   0  0  0  0  0  0  0  0  0  0  0  0
  4  5  1  0
  2  3  1  0
  5  6  2  0
  6  1  1  0
  1  2  2  0
  5  7  1  0
  3  4  2  0
  7  8  2  0
  7  9  1  0
M  END

> <chembl_id>
CHEMBL445953

> <chembl_pref_name>
METHYL 4-PYRIDYLKETONE

$$$$

     RDKit          2D

  9  9  0  0  0  0  0  0  0  0999 V2000
    2.4171  -16.5213    0.0000 C   0  0  0  0  0  0  0  0  0  0  0  0
    2.4160  -17.3408    0.0000 C   0  0  0  0  0  0  0  0  0  0  0  0
    3.1240  -17.7498    0.0000 N   0  0  0  0  0  0  0  0  0  0  0  0
    3.8337  -17.3403    0.0000 C   0  0  0  0  0  0  0  0  0  0  0  0
    3.8309  -16.5177    0.0000 C   0  0  0  0  0  0  0  0  0  0  0  0
    3.1222  -16.1124    0.0000 N   0  0  0  0  0  0  0  0  0  0  0  0
    4.5370  -16.1064    0.0000 C   0  0  0  0  0  0  0  0  0  0  0  0
    5.2463  -16.5123    0.0000 N   0  0  0  0  0  0  0  0  0  0  0  0
    4.5340  -15.2892    0.0000 S   0  0  0  0  0  0  0  0  0  0  0  0
  1  2  2  0
  2  3  1  0
  3  4  2  0
  4  5  1  0
  5  6  2  0
  6  1  1  0
  5  7  1  0
  7  8  1  0
  7  9  2  0
M  END

> <chembl_id>
CHEMBL2441350

> <chembl_pref_name>
None

$$$$

     RDKit          2D

 11 12  0  0  1  0  0  0  0  0999 V2000
   -3.3785  -26.1208    0.0000 C   0  0  0  0  0  0  0  0  0  0  0  0
   -3.3797  -26.9446    0.0000 C   0  0  0  0  0  0  0  0  0  0  0  0
   -2.6679  -27.3556    0.0000 C   0  0  0  0  0  0  0  0  0  0  0  0
   -2.6697  -25.7097    0.0000 C   0  0  0  0  0  0  0  0  0  0  0  0
   -1.9575  -26.1172    0.0000 C   0  0  0  0  0  0  0  0  0  0  0  0
   -1.9526  -26.9446    0.0000 C   0  0  0  0  0  0  0  0  0  0  0  0
   -1.1641  -27.1957    0.0000 C   0  0  0  0  0  0  0  0  0  0  0  0
   -0.6816  -26.5234    0.0000 C   0  0  0  0  0  0  0  0  0  0  0  0
   -1.1720  -25.8569    0.0000 C   0  0  0  0  0  0  0  0  0  0  0  0
   -0.9227  -25.0742    0.0000 O   0  0  0  0  0  0  0  0  0  0  0  0
   -4.0901  -25.7102    0.0000 C   0  0  0  0  0  0  0  0  0  0  0  0
  2  3  1  0
  3  6  2  0
  1  2  2  0
  5  4  2  0
  6  7  1  0
  7  8  1  0
  9  8  1  0
  9  5  1  0
  4  1  1  0
  9 10  1  1
  5  6  1  0
  1 11  1  0
M  END

> <chembl_id>
CHEMBL202955

> <chembl_pref_name>
None

$$$$

     RDKit          2D

 11 12  0  0  1  0  0  0  0  0999 V2000
   -4.1668    1.8961    0.0000 C   0  0  0  0  0  0  0  0  0  0  0  0
   -4.1679    1.0721    0.0000 C   0  0  0  0  0  0  0  0  0  0  0  0
   -3.4562    0.6612    0.0000 C   0  0  0  0  0  0  0  0  0  0  0  0
   -3.4580    2.3070    0.0000 C   0  0  0  0  0  0  0  0  0  0  0  0
   -2.7456    1.8996    0.0000 C   0  0  0  0  0  0  0  0  0  0  0  0
   -2.7423    1.0702    0.0000 C   0  0  0  0  0  0  0  0  0  0  0  0
   -2.0262    0.6607    0.0000 C   0  0  0  0  0  0  0  0  0  0  0  0
   -1.3088    1.0760    0.0000 C   0  0  0  0  0  0  0  0  0  0  0  0
   -1.3123    1.9055    0.0000 C   0  0  0  0  0  0  0  0  0  0  0  0
   -2.0331    2.3196    0.0000 C   0  0  0  0  0  0  0  0  0  0  0  0
   -2.0375    3.1411    0.0000 O   0  0  0  0  0  0  0  0  0  0  0  0
  2  3  1  0
  3  6  2  0
  1  2  2  0
  5  4  2  0
  4  1  1  0
 10  5  1  0
  6  7  1  0
  7  8  1  0
  8  9  1  0
 10  9  1  0
  5  6  1  0
 10 11  1  1
M  END

> <chembl_id>
CHEMBL206199

> <chembl_pref_name>
None

$$$$

     RDKit          2D

 10 10  0  0  0  0  0  0  0  0999 V2000
    5.8792   -3.5875    0.0000 C   0  0  0  0  0  0  0  0  0  0  0  0
    5.8792   -4.4125    0.0000 C   0  0  0  0  0  0  0  0  0  0  0  0
    6.6000   -4.8250    0.0000 C   0  0  0  0  0  0  0  0  0  0  0  0
    5.1667   -3.1750    0.0000 O   0  0  0  0  0  0  0  0  0  0  0  0
    6.5917   -3.1750    0.0000 O   0  0  0  0  0  0  0  0  0  0  0  0
    6.6000   -5.6542    0.0000 C   0  0  0  0  0  0  0  0  0  0  0  0
    5.1667   -4.8250    0.0000 C   0  0  0  0  0  0  0  0  0  0  0  0
    5.1667   -5.6542    0.0000 C   0  0  0  0  0  0  0  0  0  0  0  0
    5.8792   -6.0667    0.0000 C   0  0  0  0  0  0  0  0  0  0  0  0
    7.3167   -6.0750    0.0000 C   0  0  0  0  0  0  0  0  0  0  0  0
  2  1  1  0
  3  2  2  0
  4  1  2  0
  5  1  1  0
  6  3  1  0
  7  2  1  0
  8  7  2  0
  9  8  1  0
 10  6  1  0
  6  9  2  0
M  END

> <chembl_id>
CHEMBL67450

> <chembl_pref_name>
None

$$$$

     RDKit          2D

  7  7  0  0  0  0  0  0  0  0999 V2000
    3.5125   -4.2917    0.0000 C   0  0  0  0  0  0  0  0  0  0  0  0
    3.1125   -3.0250    0.0000 O   0  0  0  0  0  0  0  0  0  0  0  0
    3.7667   -3.5167    0.0000 C   0  0  0  0  0  0  0  0  0  0  0  0
    2.6917   -4.2917    0.0000 C   0  0  0  0  0  0  0  0  0  0  0  0
    2.4417   -3.5000    0.0000 C   0  0  0  0  0  0  0  0  0  0  0  0
    3.9917   -4.9667    0.0000 C   0  0  0  0  0  0  0  0  0  0  0  0
    4.8125   -4.8792    0.0000 O   0  0  0  0  0  0  0  0  0  0  0  0
  2  3  1  0
  3  1  2  0
  4  1  1  0
  5  4  2  0
  6  1  1  0
  7  6  1  0
  2  5  1  0
M  END

> <chembl_id>
CHEMBL440914

> <chembl_pref_name>
None

$$$$

     RDKit          2D

  9  9  0  0  0  0  0  0  0  0999 V2000
   -0.0333   -0.2625    0.0000 C   0  0  0  0  0  0  0  0  0  0  0  0
   -1.1167   -1.0458    0.0000 N   0  0  0  0  0  0  0  0  0  0  0  0
    0.7500   -0.0083    0.0000 C   0  0  0  0  0  0  0  0  0  0  0  0
   -0.7042    0.2250    0.0000 C   0  0  0  0  0  0  0  0  0  0  0  0
   -1.3667   -0.2625    0.0000 O   0  0  0  0  0  0  0  0  0  0  0  0
   -0.2917   -1.0458    0.0000 C   0  0  0  0  0  0  0  0  0  0  0  0
    0.9250    0.8000    0.0000 O   0  0  0  0  0  0  0  0  0  0  0  0
    1.3625   -0.5625    0.0000 O   0  0  0  0  0  0  0  0  0  0  0  0
   -0.7042    1.0500    0.0000 C   0  0  0  0  0  0  0  0  0  0  0  0
  2  6  2  0
  3  1  1  0
  4  1  2  0
  5  4  1  0
  6  1  1  0
  7  3  2  0
  8  3  1  0
  9  4  1  0
  2  5  1  0
M  END

> <chembl_id>
CHEMBL1213609

> <chembl_pref_name>
None

$$$$

     RDKit          2D

  8  8  0  0  0  0  0  0  0  0999 V2000
    3.7378   -8.0715    0.0000 N   0  0  0  0  0  0  0  0  0  0  0  0
    4.4462   -7.6600    0.0000 C   0  0  0  0  0  0  0  0  0  0  0  0
    3.7369   -8.8983    0.0000 C   0  0  0  0  0  0  0  0  0  0  0  0
    3.0210   -7.6626    0.0000 C   0  0  0  0  0  0  0  0  0  0  0  0
    3.0216   -6.8357    0.0000 C   0  0  0  0  0  0  0  0  0  0  0  0
    3.7343   -6.4205    0.0000 C   0  0  0  0  0  0  0  0  0  0  0  0
    4.4453   -6.8321    0.0000 C   0  0  0  0  0  0  0  0  0  0  0  0
    3.7330   -5.5972    0.0000 N   0  0  0  0  0  0  0  0  0  0  0  0
  1  2  1  0
  1  3  1  0
  1  4  1  0
  4  5  2  0
  5  6  1  0
  6  7  1  0
  7  2  2  0
  6  8  2  0
M  END

> <chembl_id>
CHEMBL3276568

> <chembl_pref_name>
None

$$$$

     RDKit          2D

 11 11  0  0  0  0  0  0  0  0999 V2000
   -2.5972   -1.5031    0.0000 C   0  0  0  0  0  0  0  0  0  0  0  0
   -2.5951   -3.0039    0.0000 C   0  0  0  0  0  0  0  0  0  0  0  0
    1.2990   -0.7500    0.0000 C   0  0  0  0  0  0  0  0  0  0  0  0
    0.0000    1.5000    0.0000 C   0  0  0  0  0  0  0  0  0  0  0  0
    0.0000   -1.5000    0.0000 C   0  0  0  0  0  0  0  0  0  0  0  0
   -1.2990   -0.7500    0.0000 C   0  0  0  0  0  0  0  0  0  0  0  0
   -3.6375   -0.9049    0.0000 C   0  0  0  0  0  0  0  0  0  0  0  0
    1.2990    0.7500    0.0000 C   0  0  0  0  0  0  0  0  0  0  0  0
   -3.8933   -3.7570    0.0000 N   0  0  0  0  0  0  0  0  0  0  0  0
   -1.2990    0.7500    0.0000 C   0  0  0  0  0  0  0  0  0  0  0  0
   -3.8916   -4.9570    0.0000 C   0  0  0  0  0  0  0  0  0  0  0  0
  1  7  2  0
 10  6  1  0
  1  2  1  0
  6  1  1  0
  2  9  1  0
  6  5  2  0
  3  8  2  0
  8  4  1  0
  5  3  1  0
  4 10  2  0
  9 11  1  0
M  END

> <chembl_id>
CHEMBL3415822

> <chembl_pref_name>
None

$$$$

     RDKit          2D

  9  9  0  0  0  0  0  0  0  0999 V2000
    8.3130   -9.1779    0.0000 C   0  0  0  0  0  0  0  0  0  0  0  0
    8.2975   -8.3609    0.0000 C   0  0  0  0  0  0  0  0  0  0  0  0
    7.5822   -7.9658    0.0000 C   0  0  0  0  0  0  0  0  0  0  0  0
    7.5666   -7.1488    0.0000 C   0  0  0  0  0  0  0  0  0  0  0  0
    8.2664   -6.7268    0.0000 C   0  0  0  0  0  0  0  0  0  0  0  0
    8.9818   -7.1219    0.0000 C   0  0  0  0  0  0  0  0  0  0  0  0
    8.9973   -7.9389    0.0000 C   0  0  0  0  0  0  0  0  0  0  0  0
    8.3286   -9.9950    0.0000 N   0  0  0  0  0  0  0  0  0  0  0  0
    9.7124   -8.3357    0.0000 Cl  0  0  0  0  0  0  0  0  0  0  0  0
  1  2  1  0
  2  3  1  0
  3  4  2  0
  4  5  1  0
  5  6  2  0
  6  7  1  0
  2  7  2  0
  1  8  3  0
  7  9  1  0
M  END

> <chembl_id>
CHEMBL3248211

> <chembl_pref_name>
None

$$$$

     RDKit          2D

  9  9  0  0  0  0  0  0  0  0999 V2000
    6.2792   -6.3917    0.0000 C   0  0  0  0  0  0  0  0  0  0  0  0
    5.9792   -6.9125    0.0000 C   0  0  0  0  0  0  0  0  0  0  0  0
    5.3750   -6.9125    0.0000 O   0  0  0  0  0  0  0  0  0  0  0  0
    5.9750   -5.8667    0.0000 C   0  0  0  0  0  0  0  0  0  0  0  0
    5.3667   -5.8750    0.0000 O   0  0  0  0  0  0  0  0  0  0  0  0
    6.8792   -6.3917    0.0000 C   0  0  0  0  0  0  0  0  0  0  0  0
    6.2792   -7.4292    0.0000 C   0  0  0  0  0  0  0  0  0  0  0  0
    7.1792   -6.9125    0.0000 C   0  0  0  0  0  0  0  0  0  0  0  0
    6.8792   -7.4292    0.0000 C   0  0  0  0  0  0  0  0  0  0  0  0
  2  1  2  0
  3  2  1  0
  4  1  1  0
  5  4  1  0
  6  1  1  0
  7  2  1  0
  8  6  2  0
  9  8  1  0
  9  7  2  0
M  END

> <chembl_id>
CHEMBL280802

> <chembl_pref_name>
SALICYL ALCOHOL

$$$$

     RDKit          2D

 10 10  0  0  0  0  0  0  0  0999 V2000
    0.6920   -1.6501    0.0000 N   0  0  0  0  0  0  0  0  0  0  0  0
   -0.7370   -1.6501    0.0000 N   0  0  0  0  0  0  0  0  0  0  0  0
   -0.0225   -1.2376    0.0000 C   0  0  0  0  0  0  0  0  0  0  0  0
   -0.0225   -0.4126    0.0000 C   0  0  0  0  0  0  0  0  0  0  0  0
   -0.7370    0.8249    0.0000 C   0  0  0  0  0  0  0  0  0  0  0  0
   -0.7370   -0.0001    0.0000 C   0  0  0  0  0  0  0  0  0  0  0  0
    0.6920   -0.0001    0.0000 C   0  0  0  0  0  0  0  0  0  0  0  0
    0.6920    0.8249    0.0000 C   0  0  0  0  0  0  0  0  0  0  0  0
   -0.0225    1.2374    0.0000 C   0  0  0  0  0  0  0  0  0  0  0  0
   -0.0225    2.0624    0.0000 N   0  0  0  0  0  0  0  0  0  0  0  0
  3  1  1  0
  3  2  2  0
  4  3  1  0
  6  4  1  0
  4  7  2  0
  5  6  2  0
  9  5  1  0
  7  8  1  0
  9  8  2  0
  9 10  1  0
M  END

> <chembl_id>
CHEMBL124632

> <chembl_pref_name>
None

$$$$

     RDKit          2D

  9  9  0  0  0  0  0  0  0  0999 V2000
   -1.2583    0.4583    0.0000 C   0  0  0  0  0  0  0  0  0  0  0  0
   -1.8333    0.6583    0.0000 N   0  0  0  0  0  0  0  0  0  0  0  0
   -0.7708    0.7958    0.0000 N   0  0  0  0  0  0  0  0  0  0  0  0
   -0.4708   -0.1167    0.0000 N   0  0  0  0  0  0  0  0  0  0  0  0
   -1.0708   -0.1167    0.0000 C   0  0  0  0  0  0  0  0  0  0  0  0
   -0.2833    0.4583    0.0000 C   0  0  0  0  0  0  0  0  0  0  0  0
   -1.9458    1.2458    0.0000 O   0  0  0  0  0  0  0  0  0  0  0  0
   -2.2958    0.2583    0.0000 O   0  0  0  0  0  0  0  0  0  0  0  0
    0.2875    0.6458    0.0000 C   0  0  0  0  0  0  0  0  0  0  0  0
  2  1  1  0
  3  1  1  0
  4  5  1  0
  5  1  2  0
  6  3  2  0
  7  2  1  0
  8  2  2  0
  9  6  1  0
  6  4  1  0
M  CHG  2   2   1   7  -1
M  END

> <chembl_id>
CHEMBL134454

> <chembl_pref_name>
None

$$$$

     RDKit          2D

 11 11  0  0  0  0  0  0  0  0999 V2000
    3.4392    4.6265    0.0000 O   0  0  0  0  0  0  0  0  0  0  0  0
    2.7248    3.3890    0.0000 N   0  0  0  0  0  0  0  0  0  0  0  0
    2.0103    2.1515    0.0000 C   0  0  0  0  0  0  0  0  0  0  0  0
    2.0103    1.3265    0.0000 C   0  0  0  0  0  0  0  0  0  0  0  0
    2.7248    2.5640    0.0000 C   0  0  0  0  0  0  0  0  0  0  0  0
    2.7248    0.9140    0.0000 C   0  0  0  0  0  0  0  0  0  0  0  0
    1.2958    0.9140    0.0000 C   0  0  0  0  0  0  0  0  0  0  0  0
    3.4392    3.8015    0.0000 C   0  0  0  0  0  0  0  0  0  0  0  0
    2.7248    0.0890    0.0000 C   0  0  0  0  0  0  0  0  0  0  0  0
    1.2958    0.0890    0.0000 C   0  0  0  0  0  0  0  0  0  0  0  0
    2.0103   -0.3235    0.0000 C   0  0  0  0  0  0  0  0  0  0  0  0
  1  8  2  0
  2  5  1  0
  2  8  1  0
  3  4  1  0
  3  5  2  0
  4  6  2  0
  4  7  1  0
  6  9  1  0
  7 10  2  0
  9 11  2  0
 10 11  1  0
M  END

> <chembl_id>
CHEMBL1975119

> <chembl_pref_name>
None

$$$$

     RDKit          2D

  8  8  0  0  0  0  0  0  0  0999 V2000
   -2.2460  -10.9561    0.0000 C   0  0  0  0  0  0  0  0  0  0  0  0
   -2.2471  -11.7829    0.0000 C   0  0  0  0  0  0  0  0  0  0  0  0
   -1.5327  -12.1955    0.0000 C   0  0  0  0  0  0  0  0  0  0  0  0
   -0.8167  -11.7825    0.0000 C   0  0  0  0  0  0  0  0  0  0  0  0
   -0.8195  -10.9524    0.0000 C   0  0  0  0  0  0  0  0  0  0  0  0
   -1.5345  -10.5435    0.0000 C   0  0  0  0  0  0  0  0  0  0  0  0
   -2.9615  -12.1946    0.0000 O   0  0  0  0  0  0  0  0  0  0  0  0
   -3.6752  -11.7818    0.0000 C   0  0  0  0  0  0  0  0  0  0  0  0
  4  5  1  0
  2  3  1  0
  5  6  2  0
  6  1  1  0
  1  2  2  0
  2  7  1  0
  3  4  2  0
  7  8  1  0
M  END

> <chembl_id>
CHEMBL278024

> <chembl_pref_name>
ANISOLE

$$$$

     RDKit          2D

 10 11  0  0  0  0  0  0  0  0999 V2000
    4.7000   -3.4000    0.0000 N   0  0  0  0  0  0  0  0  0  0  0  0
    5.4917   -3.1875    0.0000 C   0  0  0  0  0  0  0  0  0  0  0  0
    4.7792   -2.0667    0.0000 N   0  0  0  0  0  0  0  0  0  0  0  0
    4.2542   -2.7042    0.0000 C   0  0  0  0  0  0  0  0  0  0  0  0
    5.5417   -2.3667    0.0000 C   0  0  0  0  0  0  0  0  0  0  0  0
    6.0792   -3.7750    0.0000 C   0  0  0  0  0  0  0  0  0  0  0  0
    6.6167   -4.9917    0.0000 N   0  0  0  0  0  0  0  0  0  0  0  0
    5.9042   -4.5792    0.0000 C   0  0  0  0  0  0  0  0  0  0  0  0
    7.2167   -4.4417    0.0000 C   0  0  0  0  0  0  0  0  0  0  0  0
    6.8875   -3.6875    0.0000 C   0  0  0  0  0  0  0  0  0  0  0  0
  2  1  1  0
  3  4  1  0
  4  1  2  0
  5  2  2  0
  6  2  1  0
  7  8  1  0
  8  6  1  0
  9 10  1  0
 10  6  1  0
  5  3  1  0
  7  9  1  0
M  END

> <chembl_id>
CHEMBL79983

> <chembl_pref_name>
None

$$$$

     RDKit          2D

  9  9  0  0  0  0  0  0  0  0999 V2000
   -4.6848   -6.1000    0.0000 C   0  0  0  0  0  0  0  0  0  0  0  0
   -4.6859   -6.9273    0.0000 C   0  0  0  0  0  0  0  0  0  0  0  0
   -3.9711   -7.3402    0.0000 C   0  0  0  0  0  0  0  0  0  0  0  0
   -3.2547   -6.9269    0.0000 C   0  0  0  0  0  0  0  0  0  0  0  0
   -3.2575   -6.0963    0.0000 C   0  0  0  0  0  0  0  0  0  0  0  0
   -3.9729   -5.6872    0.0000 C   0  0  0  0  0  0  0  0  0  0  0  0
   -3.9754   -4.8622    0.0000 C   0  0  0  0  0  0  0  0  0  0  0  0
   -5.4007   -7.3393    0.0000 C   0  0  0  0  0  0  0  0  0  0  0  0
   -2.5395   -7.3382    0.0000 C   0  0  0  0  0  0  0  0  0  0  0  0
  4  5  1  0
  2  3  1  0
  5  6  2  0
  6  1  1  0
  1  2  2  0
  6  7  1  0
  3  4  2  0
  2  8  1  0
  4  9  1  0
M  END

> <chembl_id>
CHEMBL1797281

> <chembl_pref_name>
None

$$$$

     RDKit          2D

 10 10  0  0  0  0  0  0  0  0999 V2000
    1.0747    0.4018    0.0000 C   0  0  0  0  0  0  0  0  0  0  0  0
    0.3541    0.0000    0.0000 C   0  0  0  0  0  0  0  0  0  0  0  0
   -0.3541    0.4231    0.0000 C   0  0  0  0  0  0  0  0  0  0  0  0
   -1.0747    0.0214    0.0000 C   0  0  0  0  0  0  0  0  0  0  0  0
   -1.0870   -0.8036    0.0000 C   0  0  0  0  0  0  0  0  0  0  0  0
   -0.3788   -1.2267    0.0000 N   0  0  0  0  0  0  0  0  0  0  0  0
    0.3418   -0.8249    0.0000 C   0  0  0  0  0  0  0  0  0  0  0  0
    1.0870    1.2267    0.0000 O   0  0  0  0  0  0  0  0  0  0  0  0
    1.7829   -0.0214    0.0000 O   0  0  0  0  0  0  0  0  0  0  0  0
   -1.7829    0.4445    0.0000 O   0  0  0  0  0  0  0  0  0  0  0  0
  1  2  1  0
  2  3  1  0
  3  4  2  0
  4  5  1  0
  5  6  2  0
  6  7  1  0
  2  7  2  0
  1  8  2  0
  1  9  1  0
  4 10  1  0
M  END

> <chembl_id>
CHEMBL2146902

> <chembl_pref_name>
None

$$$$

     RDKit          2D

  9  9  0  0  0  0  0  0  0  0999 V2000
   -2.0916   -7.5386    0.0000 C   0  0  0  0  0  0  0  0  0  0  0  0
   -2.0916   -6.7136    0.0000 C   0  0  0  0  0  0  0  0  0  0  0  0
   -1.3771   -6.3011    0.0000 N   0  0  0  0  0  0  0  0  0  0  0  0
   -1.3771   -5.4761    0.0000 C   0  0  0  0  0  0  0  0  0  0  0  0
   -0.6626   -6.7136    0.0000 O   0  0  0  0  0  0  0  0  0  0  0  0
   -1.4241   -8.0236    0.0000 O   0  0  0  0  0  0  0  0  0  0  0  0
   -1.6791   -8.8082    0.0000 C   0  0  0  0  0  0  0  0  0  0  0  0
   -2.5041   -8.8082    0.0000 C   0  0  0  0  0  0  0  0  0  0  0  0
   -2.7590   -8.0236    0.0000 C   0  0  0  0  0  0  0  0  0  0  0  0
  3  5  1  0
  1  6  1  0
  2  3  2  0
  1  2  1  0
  3  4  1  0
  6  7  1  0
  7  8  2  0
  8  9  1  0
  9  1  2  0
M  CHG  2   3   1   5  -1
M  END

> <chembl_id>
CHEMBL554606

> <chembl_pref_name>
None

$$$$

     RDKit          2D

 11 12  0  0  0  0  0  0  0  0999 V2000
    4.2010   -3.2956    0.0000 C   0  0  0  0  0  0  0  0  0  0  0  0
    4.9531   -1.9978    0.0000 C   0  0  0  0  0  0  0  0  0  0  0  0
    3.9511   -0.8815    0.0000 N   0  0  0  0  0  0  0  0  0  0  0  0
    2.5987   -1.5004    0.0000 C   0  0  0  0  0  0  0  0  0  0  0  0
    2.7343   -2.9815    0.0000 C   0  0  0  0  0  0  0  0  0  0  0  0
    1.2990   -0.7500    0.0000 C   0  0  0  0  0  0  0  0  0  0  0  0
    1.2990    0.7500    0.0000 C   0  0  0  0  0  0  0  0  0  0  0  0
    0.0000    1.5000    0.0000 C   0  0  0  0  0  0  0  0  0  0  0  0
   -1.2990    0.7500    0.0000 C   0  0  0  0  0  0  0  0  0  0  0  0
   -1.2990   -0.7500    0.0000 N   0  0  0  0  0  0  0  0  0  0  0  0
    0.0000   -1.5000    0.0000 C   0  0  0  0  0  0  0  0  0  0  0  0
  1  2  1  0
  2  3  1  0
  3  4  2  0
  4  5  1  0
  5  1  1  0
  4  6  1  0
  6  7  2  0
  7  8  1  0
  8  9  2  0
  9 10  1  0
 10 11  2  0
 11  6  1  0
M  END

> <chembl_id>
CHEMBL423429

> <chembl_pref_name>
MYOSMINE

$$$$

     RDKit          2D

 10 11  0  0  0  0  0  0  0  0999 V2000
    3.2292   -1.5542    0.0000 N   0  0  0  0  0  0  0  0  0  0  0  0
    3.7500   -0.6542    0.0000 C   0  0  0  0  0  0  0  0  0  0  0  0
    2.7125   -0.6542    0.0000 N   0  0  0  0  0  0  0  0  0  0  0  0
    3.7500   -1.2542    0.0000 C   0  0  0  0  0  0  0  0  0  0  0  0
    2.7125   -1.2542    0.0000 C   0  0  0  0  0  0  0  0  0  0  0  0
    3.2292   -0.3542    0.0000 C   0  0  0  0  0  0  0  0  0  0  0  0
    4.2667   -0.3500    0.0000 C   0  0  0  0  0  0  0  0  0  0  0  0
    4.2667   -1.5542    0.0000 C   0  0  0  0  0  0  0  0  0  0  0  0
    4.7875   -0.6417    0.0000 C   0  0  0  0  0  0  0  0  0  0  0  0
    4.7917   -1.2500    0.0000 C   0  0  0  0  0  0  0  0  0  0  0  0
  2  4  2  0
  3  5  1  0
  4  1  1  0
  5  1  1  0
  6  3  1  0
  7  2  1  0
  8  4  1  0
  9 10  1  0
 10  8  2  0
  2  6  1  0
  9  7  2  0
M  END

> <chembl_id>
CHEMBL267003

> <chembl_pref_name>
None

$$$$

     RDKit          2D

  8  8  0  0  0  0  0  0  0  0999 V2000
   -0.4639    0.9042    0.0000 C   0  0  0  0  0  0  0  0  0  0  0  0
   -0.4651    0.0768    0.0000 C   0  0  0  0  0  0  0  0  0  0  0  0
    0.2497   -0.3360    0.0000 N   0  0  0  0  0  0  0  0  0  0  0  0
    0.9662    0.0773    0.0000 C   0  0  0  0  0  0  0  0  0  0  0  0
    0.9633    0.9078    0.0000 N   0  0  0  0  0  0  0  0  0  0  0  0
    0.2479    1.3170    0.0000 C   0  0  0  0  0  0  0  0  0  0  0  0
    1.6813   -0.3341    0.0000 S   0  0  0  0  0  0  0  0  0  0  0  0
    0.2455    2.1420    0.0000 C   0  0  0  0  0  0  0  0  0  0  0  0
  4  5  1  0
  2  3  1  0
  5  6  2  0
  6  1  1  0
  1  2  2  0
  4  7  1  0
  3  4  2  0
  6  8  1  0
M  END

> <chembl_id>
CHEMBL455772

> <chembl_pref_name>
None

$$$$

     RDKit          2D

 11 11  0  0  0  0  0  0  0  0999 V2000
    3.1625   -2.7167    0.0000 N   0  0  0  0  0  0  0  0  0  0  0  0
    5.8625   -3.2792    0.0000 C   0  0  0  0  0  0  0  0  0  0  0  0
    5.2625   -3.2792    0.0000 C   0  0  0  0  0  0  0  0  0  0  0  0
    2.8625   -3.6417    0.0000 N   0  0  0  0  0  0  0  0  0  0  0  0
    2.6750   -3.0667    0.0000 C   0  0  0  0  0  0  0  0  0  0  0  0
    3.6417   -3.0667    0.0000 C   0  0  0  0  0  0  0  0  0  0  0  0
    3.4625   -3.6417    0.0000 C   0  0  0  0  0  0  0  0  0  0  0  0
    4.6625   -3.2792    0.0000 C   0  0  0  0  0  0  0  0  0  0  0  0
    6.4625   -3.2792    0.0000 C   0  0  0  0  0  0  0  0  0  0  0  0
    4.2167   -2.8792    0.0000 C   0  0  0  0  0  0  0  0  0  0  0  0
    7.1167   -2.8167    0.0000 C   0  0  0  0  0  0  0  0  0  0  0  0
  2  3  3  0
  3  8  1  0
  4  5  1  0
  5  1  2  0
  6  1  1  0
  7  6  2  0
  8 10  1  0
  9  2  1  0
 10  6  1  0
 11  9  1  0
  4  7  1  0
M  END

> <chembl_id>
CHEMBL14721

> <chembl_pref_name>
None

$$$$

     RDKit          2D

 11 11  0  0  0  0  0  0  0  0999 V2000
    6.2292   -3.1667    0.0000 N   0  0  0  0  0  0  0  0  0  0  0  0
    5.5167   -3.5792    0.0000 C   0  0  0  0  0  0  0  0  0  0  0  0
    4.8042   -3.9917    0.0000 C   0  0  0  0  0  0  0  0  0  0  0  0
    4.8042   -4.8167    0.0000 C   0  0  0  0  0  0  0  0  0  0  0  0
    4.0875   -3.5792    0.0000 N   0  0  0  0  0  0  0  0  0  0  0  0
    4.0875   -5.2292    0.0000 C   0  0  0  0  0  0  0  0  0  0  0  0
    4.0917   -6.0500    0.0000 C   0  0  0  0  0  0  0  0  0  0  0  0
    3.3750   -4.8125    0.0000 C   0  0  0  0  0  0  0  0  0  0  0  0
    2.6625   -5.2250    0.0000 C   0  0  0  0  0  0  0  0  0  0  0  0
    3.3792   -6.4625    0.0000 C   0  0  0  0  0  0  0  0  0  0  0  0
    2.6542   -6.0500    0.0000 C   0  0  0  0  0  0  0  0  0  0  0  0
  2  1  3  0
  3  2  1  0
  4  3  1  0
  5  3  1  0
  6  4  1  0
  7  6  1  0
  8  6  2  0
  9  8  1  0
 10  7  2  0
 11  9  2  0
 11 10  1  0
M  END

> <chembl_id>
CHEMBL267552

> <chembl_pref_name>
None

$$$$

     RDKit          2D

  7  7  0  0  0  0  0  0  0  0999 V2000
    2.5917    1.1375    0.0000 C   0  0  0  0  0  0  0  0  0  0  0  0
    2.1500   -0.1167    0.0000 S   0  0  0  0  0  0  0  0  0  0  0  0
    2.8292    0.3458    0.0000 C   0  0  0  0  0  0  0  0  0  0  0  0
    1.7667    1.1583    0.0000 C   0  0  0  0  0  0  0  0  0  0  0  0
    1.5000    0.3833    0.0000 C   0  0  0  0  0  0  0  0  0  0  0  0
    3.1000    1.7958    0.0000 C   0  0  0  0  0  0  0  0  0  0  0  0
    2.7792    2.5583    0.0000 O   0  0  0  0  0  0  0  0  0  0  0  0
  2  3  1  0
  3  1  2  0
  4  1  1  0
  5  4  2  0
  6  1  1  0
  7  6  2  0
  2  5  1  0
M  END

> <chembl_id>
CHEMBL72211

> <chembl_pref_name>
None

$$$$

     RDKit          2D

 10 10  0  0  0  0  0  0  0  0999 V2000
    6.1234   -3.3719    0.0000 C   0  0  0  0  0  0  0  0  0  0  0  0
    6.1222   -4.1914    0.0000 C   0  0  0  0  0  0  0  0  0  0  0  0
    6.8303   -4.6004    0.0000 C   0  0  0  0  0  0  0  0  0  0  0  0
    7.5400   -4.1910    0.0000 C   0  0  0  0  0  0  0  0  0  0  0  0
    7.5371   -3.3683    0.0000 C   0  0  0  0  0  0  0  0  0  0  0  0
    6.8285   -2.9630    0.0000 C   0  0  0  0  0  0  0  0  0  0  0  0
    6.8261   -2.1459    0.0000 C   0  0  0  0  0  0  0  0  0  0  0  0
    7.5325   -1.7352    0.0000 N   0  0  0  0  0  0  0  0  0  0  0  0
    6.1171   -1.7394    0.0000 O   0  0  0  0  0  0  0  0  0  0  0  0
    6.8301   -5.4176    0.0000 C   0  0  0  0  0  0  0  0  0  0  0  0
  1  2  2  0
  2  3  1  0
  3  4  2  0
  4  5  1  0
  5  6  2  0
  6  1  1  0
  6  7  1  0
  7  8  1  0
  7  9  2  0
  3 10  1  0
M  END

> <chembl_id>
CHEMBL3247924

> <chembl_pref_name>
None

$$$$

     RDKit          2D

 11 11  0  0  0  0  0  0  0  0999 V2000
   10.3000  -13.2484    0.0000 C   0  0  0  0  0  0  0  0  0  0  0  0
    9.4828  -13.2484    0.0000 C   0  0  0  0  0  0  0  0  0  0  0  0
    9.0742  -13.9561    0.0000 C   0  0  0  0  0  0  0  0  0  0  0  0
    8.2570  -13.9561    0.0000 C   0  0  0  0  0  0  0  0  0  0  0  0
    7.8484  -13.2484    0.0000 C   0  0  0  0  0  0  0  0  0  0  0  0
    7.0312  -13.2484    0.0000 C   0  0  0  0  0  0  0  0  0  0  0  0
    8.2570  -12.5407    0.0000 C   0  0  0  0  0  0  0  0  0  0  0  0
    9.0742  -12.5407    0.0000 C   0  0  0  0  0  0  0  0  0  0  0  0
   11.1172  -13.2484    0.0000 N   0  0  0  0  0  0  0  0  0  0  0  0
    6.2141  -13.2484    0.0000 N   0  0  0  0  0  0  0  0  0  0  0  0
    9.4789  -14.6664    0.0000 F   0  0  0  0  0  0  0  0  0  0  0  0
  1  2  1  0
  2  3  1  0
  3  4  2  0
  4  5  1  0
  5  6  1  0
  5  7  2  0
  7  8  1  0
  2  8  2  0
  1  9  3  0
  6 10  3  0
  3 11  1  0
M  END

> <chembl_id>
CHEMBL3248226

> <chembl_pref_name>
None

$$$$

     RDKit          2D

 11 11  0  0  0  0  0  0  0  0999 V2000
    2.1192   -5.5496    0.0000 C   0  0  0  0  0  0  0  0  0  0  0  0
    2.1181   -6.3770    0.0000 C   0  0  0  0  0  0  0  0  0  0  0  0
    2.8328   -6.7897    0.0000 C   0  0  0  0  0  0  0  0  0  0  0  0
    3.5493   -6.3765    0.0000 C   0  0  0  0  0  0  0  0  0  0  0  0
    3.5464   -5.5459    0.0000 C   0  0  0  0  0  0  0  0  0  0  0  0
    2.8311   -5.1369    0.0000 C   0  0  0  0  0  0  0  0  0  0  0  0
    4.2592   -5.1308    0.0000 C   0  0  0  0  0  0  0  0  0  0  0  0
    4.9753   -5.5406    0.0000 C   0  0  0  0  0  0  0  0  0  0  0  0
    5.6881   -5.1254    0.0000 N   0  0  0  0  0  0  0  0  0  0  0  0
    6.4041   -5.5352    0.0000 N   0  0  0  0  0  0  0  0  0  0  0  0
    4.2644   -6.7878    0.0000 C   0  0  0  0  0  0  0  0  0  0  0  0
  1  2  2  0
  2  3  1  0
  3  4  2  0
  4  5  1  0
  5  6  2  0
  6  1  1  0
  5  7  1  0
  7  8  1  0
  8  9  2  0
  9 10  1  0
  4 11  1  0
M  END

> <chembl_id>
CHEMBL2235133

> <chembl_pref_name>
None

$$$$

     RDKit          2D

  8  8  0  0  0  0  0  0  0  0999 V2000
   16.1033   -2.9036    0.0000 C   0  0  0  0  0  0  0  0  0  0  0  0
   16.7707   -2.4193    0.0000 C   0  0  0  0  0  0  0  0  0  0  0  0
   16.7707   -1.5980    0.0000 C   0  0  0  0  0  0  0  0  0  0  0  0
   17.5521   -1.3475    0.0000 C   0  0  0  0  0  0  0  0  0  0  0  0
   18.0322   -2.0107    0.0000 C   0  0  0  0  0  0  0  0  0  0  0  0
   17.5521   -2.6781    0.0000 O   0  0  0  0  0  0  0  0  0  0  0  0
   15.3560   -2.5733    0.0000 O   0  0  0  0  0  0  0  0  0  0  0  0
   18.8535   -2.0107    0.0000 C   0  0  0  0  0  0  0  0  0  0  0  0
  1  2  1  0
  2  3  2  0
  3  4  1  0
  4  5  2  0
  5  6  1  0
  2  6  1  0
  1  7  2  0
  5  8  1  0
M  END

> <chembl_id>
CHEMBL2230304

> <chembl_pref_name>
5-METHYLFURFURAL

$$$$

     RDKit          2D

 11 12  0  0  0  0  0  0  0  0999 V2000
    5.9667   -3.2167    0.0000 N   0  0  0  0  0  0  0  0  0  0  0  0
    4.9167   -2.9792    0.0000 C   0  0  0  0  0  0  0  0  0  0  0  0
    4.9167   -2.3792    0.0000 C   0  0  0  0  0  0  0  0  0  0  0  0
    5.3875   -3.3542    0.0000 C   0  0  0  0  0  0  0  0  0  0  0  0
    6.2292   -2.6792    0.0000 C   0  0  0  0  0  0  0  0  0  0  0  0
    4.4042   -2.0792    0.0000 C   0  0  0  0  0  0  0  0  0  0  0  0
    4.4042   -3.2792    0.0000 C   0  0  0  0  0  0  0  0  0  0  0  0
    5.3875   -2.0125    0.0000 C   0  0  0  0  0  0  0  0  0  0  0  0
    5.9667   -2.1417    0.0000 C   0  0  0  0  0  0  0  0  0  0  0  0
    3.8792   -2.9792    0.0000 C   0  0  0  0  0  0  0  0  0  0  0  0
    3.8792   -2.3875    0.0000 C   0  0  0  0  0  0  0  0  0  0  0  0
  2  4  1  0
  3  2  1  0
  4  1  1  0
  5  1  1  0
  6  3  2  0
  7  2  2  0
  8  9  1  0
  9  5  1  0
 10  7  1  0
 11 10  2  0
  8  3  1  0
  6 11  1  0
M  END

> <chembl_id>
CHEMBL118310

> <chembl_pref_name>
None

$$$$

     RDKit          2D

  9  9  0  0  0  0  0  0  0  0999 V2000
   15.9797  -11.9973    0.0000 C   0  0  0  0  0  0  0  0  0  0  0  0
   16.3882  -11.2882    0.0000 C   0  0  0  0  0  0  0  0  0  0  0  0
   16.3882  -12.7022    0.0000 O   0  0  0  0  0  0  0  0  0  0  0  0
   14.6823  -11.3340    0.0000 C   0  0  0  0  0  0  0  0  0  0  0  0
   15.1625  -11.9973    0.0000 C   0  0  0  0  0  0  0  0  0  0  0  0
   14.6823  -12.6564    0.0000 C   0  0  0  0  0  0  0  0  0  0  0  0
   13.9051  -12.4059    0.0000 C   0  0  0  0  0  0  0  0  0  0  0  0
   13.9051  -11.5887    0.0000 S   0  0  0  0  0  0  0  0  0  0  0  0
   15.9797  -10.5791    0.0000 N   0  0  0  0  0  0  0  0  0  0  0  0
  1  2  1  0
  1  3  1  0
  4  5  2  0
  5  6  1  0
  6  7  2  0
  7  8  1  0
  4  8  1  0
  1  5  1  0
  2  9  1  0
M  END

> <chembl_id>
CHEMBL4126390

> <chembl_pref_name>
None

$$$$

     RDKit          2D

  9  9  0  0  0  0  0  0  0  0999 V2000
   -1.5208   -0.3375    0.0000 C   0  0  0  0  0  0  0  0  0  0  0  0
   -1.5375    0.5000    0.0000 O   0  0  0  0  0  0  0  0  0  0  0  0
   -0.8000   -0.7375    0.0000 O   0  0  0  0  0  0  0  0  0  0  0  0
   -0.0750   -0.3167    0.0000 C   0  0  0  0  0  0  0  0  0  0  0  0
   -0.0750    0.5125    0.0000 C   0  0  0  0  0  0  0  0  0  0  0  0
    0.6375   -0.7250    0.0000 C   0  0  0  0  0  0  0  0  0  0  0  0
    1.3542   -0.3167    0.0000 C   0  0  0  0  0  0  0  0  0  0  0  0
    0.6375    0.9208    0.0000 C   0  0  0  0  0  0  0  0  0  0  0  0
    1.3542    0.5125    0.0000 C   0  0  0  0  0  0  0  0  0  0  0  0
  2  1  2  0
  3  1  1  0
  4  3  1  0
  5  4  2  0
  6  4  1  0
  7  6  2  0
  8  5  1  0
  9  7  1  0
  8  9  2  0
M  END

> <chembl_id>
CHEMBL366050

> <chembl_pref_name>
FORMIC ACID PHENYL ESTER

$$$$

     RDKit          2D

  9  9  0  0  0  0  0  0  0  0999 V2000
    5.7529   -9.9222    0.0000 C   0  0  0  0  0  0  0  0  0  0  0  0
    5.7517  -10.7491    0.0000 C   0  0  0  0  0  0  0  0  0  0  0  0
    6.4661  -11.1617    0.0000 C   0  0  0  0  0  0  0  0  0  0  0  0
    7.1820  -10.7486    0.0000 C   0  0  0  0  0  0  0  0  0  0  0  0
    7.1791   -9.9186    0.0000 C   0  0  0  0  0  0  0  0  0  0  0  0
    6.4643   -9.5098    0.0000 C   0  0  0  0  0  0  0  0  0  0  0  0
    6.4659  -11.9861    0.0000 O   0  0  0  0  0  0  0  0  0  0  0  0
    5.7518  -12.3981    0.0000 C   0  0  0  0  0  0  0  0  0  0  0  0
    5.7516  -13.2225    0.0000 C   0  0  0  0  0  0  0  0  0  0  0  0
  4  5  1  0
  2  3  1  0
  5  6  2  0
  6  1  1  0
  1  2  2  0
  3  7  1  0
  3  4  2  0
  7  8  1  0
  8  9  1  0
M  END

> <chembl_id>
CHEMBL499585

> <chembl_pref_name>
PHENETOLE

$$$$

     RDKit          2D

 10 10  0  0  0  0  0  0  0  0999 V2000
    1.6070  -14.9464    0.0000 C   0  0  0  0  0  0  0  0  0  0  0  0
    1.6058  -15.7739    0.0000 C   0  0  0  0  0  0  0  0  0  0  0  0
    2.3207  -16.1867    0.0000 N   0  0  0  0  0  0  0  0  0  0  0  0
    3.0372  -15.7734    0.0000 C   0  0  0  0  0  0  0  0  0  0  0  0
    3.0342  -14.9428    0.0000 C   0  0  0  0  0  0  0  0  0  0  0  0
    2.3188  -14.5337    0.0000 C   0  0  0  0  0  0  0  0  0  0  0  0
    3.7523  -16.1848    0.0000 C   0  0  0  0  0  0  0  0  0  0  0  0
    4.4662  -15.7711    0.0000 N   0  0  0  0  0  0  0  0  0  0  0  0
    5.1813  -16.1825    0.0000 C   0  0  0  0  0  0  0  0  0  0  0  0
    4.4648  -14.9461    0.0000 C   0  0  0  0  0  0  0  0  0  0  0  0
  1  2  2  0
  2  3  1  0
  3  4  2  0
  4  5  1  0
  5  6  2  0
  6  1  1  0
  4  7  1  0
  7  8  1  0
  8  9  1  0
  8 10  1  0
M  END

> <chembl_id>
CHEMBL2286831

> <chembl_pref_name>
None

$$$$

     RDKit          2D

  9  9  0  0  0  0  0  0  0  0999 V2000
    7.5239  -14.6063    0.0000 C   0  0  0  0  0  0  0  0  0  0  0  0
    8.3411  -14.6063    0.0000 C   0  0  0  0  0  0  0  0  0  0  0  0
    8.5955  -13.8296    0.0000 C   0  0  0  0  0  0  0  0  0  0  0  0
    7.9325  -13.3475    0.0000 S   0  0  0  0  0  0  0  0  0  0  0  0
    7.2738  -13.8296    0.0000 C   0  0  0  0  0  0  0  0  0  0  0  0
    9.2986  -13.4135    0.0000 C   0  0  0  0  0  0  0  0  0  0  0  0
   10.0107  -13.8145    0.0000 O   0  0  0  0  0  0  0  0  0  0  0  0
    9.2899  -12.5963    0.0000 O   0  0  0  0  0  0  0  0  0  0  0  0
    8.8207  -15.2680    0.0000 C   0  0  0  0  0  0  0  0  0  0  0  0
  1  2  1  0
  2  3  2  0
  3  4  1  0
  4  5  1  0
  5  1  2  0
  3  6  1  0
  6  7  1  0
  6  8  2  0
  2  9  1  0
M  END

> <chembl_id>
CHEMBL4285249

> <chembl_pref_name>
None

$$$$

     RDKit          2D

  6  6  0  0  0  0  0  0  0  0999 V2000
    0.2584   -0.0352    0.0000 S   0  0  0  0  0  0  0  0  0  0  0  0
    0.0035    0.7494    0.0000 S   0  0  0  0  0  0  0  0  0  0  0  0
    0.6709    1.2343    0.0000 C   0  0  0  0  0  0  0  0  0  0  0  0
    1.3383    0.7494    0.0000 C   0  0  0  0  0  0  0  0  0  0  0  0
    1.0834   -0.0352    0.0000 C   0  0  0  0  0  0  0  0  0  0  0  0
    0.6709    2.0593    0.0000 O   0  0  0  0  0  0  0  0  0  0  0  0
  1  2  1  0
  2  3  1  0
  3  4  1  0
  4  5  2  0
  1  5  1  0
  3  6  2  0
M  END

> <chembl_id>
CHEMBL1170806

> <chembl_pref_name>
None

$$$$

     RDKit          2D

  7  7  0  0  0  0  0  0  0  0999 V2000
    5.9792   -3.9917    0.0000 C   0  0  0  0  0  0  0  0  0  0  0  0
    5.7250   -4.7792    0.0000 C   0  0  0  0  0  0  0  0  0  0  0  0
    5.3125   -3.5042    0.0000 O   0  0  0  0  0  0  0  0  0  0  0  0
    4.6500   -3.9917    0.0000 C   0  0  0  0  0  0  0  0  0  0  0  0
    4.9000   -4.7792    0.0000 C   0  0  0  0  0  0  0  0  0  0  0  0
    6.7667   -3.7375    0.0000 C   0  0  0  0  0  0  0  0  0  0  0  0
    6.2125   -5.4417    0.0000 C   0  0  0  0  0  0  0  0  0  0  0  0
  2  1  2  0
  3  1  1  0
  4  3  1  0
  5  2  1  0
  6  1  1  0
  7  2  1  0
  4  5  2  0
M  END

> <chembl_id>
CHEMBL108232

> <chembl_pref_name>
None

$$$$

     RDKit          2D

 10 10  0  0  0  0  0  0  0  0999 V2000
    1.3911    0.5271    0.0000 N   0  0  0  0  0  0  0  0  0  0  0  0
    0.6767    0.1146    0.0000 C   0  0  0  0  0  0  0  0  0  0  0  0
    0.6767   -0.7104    0.0000 C   0  0  0  0  0  0  0  0  0  0  0  0
   -0.0378   -1.1229    0.0000 C   0  0  0  0  0  0  0  0  0  0  0  0
   -0.0378   -1.9479    0.0000 C   0  0  0  0  0  0  0  0  0  0  0  0
   -0.7523   -0.7104    0.0000 C   0  0  0  0  0  0  0  0  0  0  0  0
   -0.7523    0.1146    0.0000 C   0  0  0  0  0  0  0  0  0  0  0  0
   -0.0378    0.5271    0.0000 C   0  0  0  0  0  0  0  0  0  0  0  0
   -0.0378    1.3521    0.0000 O   0  0  0  0  0  0  0  0  0  0  0  0
   -0.7523    1.7646    0.0000 C   0  0  0  0  0  0  0  0  0  0  0  0
  2  1  1  0
  2  3  1  0
  2  8  2  0
  3  4  2  0
  4  5  1  0
  4  6  1  0
  6  7  2  0
  7  8  1  0
  8  9  1  0
 10  9  1  0
M  END

> <chembl_id>
CHEMBL398755

> <chembl_pref_name>
None

$$$$

     RDKit          2D

  9  9  0  0  0  0  0  0  0  0999 V2000
    4.8167   -2.6542    0.0000 C   0  0  0  0  0  0  0  0  0  0  0  0
    5.1500   -1.4292    0.0000 O   0  0  0  0  0  0  0  0  0  0  0  0
    4.6292   -2.0792    0.0000 N   0  0  0  0  0  0  0  0  0  0  0  0
    5.6042   -2.0792    0.0000 N   0  0  0  0  0  0  0  0  0  0  0  0
    5.4167   -2.6542    0.0000 C   0  0  0  0  0  0  0  0  0  0  0  0
    4.4625   -3.1417    0.0000 C   0  0  0  0  0  0  0  0  0  0  0  0
    4.2167   -3.6917    0.0000 N   0  0  0  0  0  0  0  0  0  0  0  0
    3.6167   -3.7500    0.0000 O   0  0  0  0  0  0  0  0  0  0  0  0
    5.7667   -3.1417    0.0000 C   0  0  0  0  0  0  0  0  0  0  0  0
  2  3  1  0
  3  1  2  0
  4  5  2  0
  5  1  1  0
  6  1  1  0
  7  6  2  0
  8  7  1  0
  9  5  1  0
  4  2  1  0
M  END

> <chembl_id>
CHEMBL19925

> <chembl_pref_name>
None

$$$$

     RDKit          2D

 10 10  0  0  0  0  0  0  0  0999 V2000
   -2.5233   -9.8882    0.0000 C   0  0  0  0  0  0  0  0  0  0  0  0
   -3.3483   -9.8882    0.0000 C   0  0  0  0  0  0  0  0  0  0  0  0
   -3.7587  -10.6005    0.0000 C   0  0  0  0  0  0  0  0  0  0  0  0
   -4.5838  -10.6005    0.0000 C   0  0  0  0  0  0  0  0  0  0  0  0
   -4.9985   -9.8882    0.0000 C   0  0  0  0  0  0  0  0  0  0  0  0
   -4.5838   -9.1717    0.0000 N   0  0  0  0  0  0  0  0  0  0  0  0
   -3.7587   -9.1717    0.0000 C   0  0  0  0  0  0  0  0  0  0  0  0
   -2.1086   -9.1717    0.0000 O   0  0  0  0  0  0  0  0  0  0  0  0
   -2.1086  -10.6005    0.0000 O   0  0  0  0  0  0  0  0  0  0  0  0
   -4.9988   -8.4610    0.0000 C   0  0  0  0  0  0  0  0  0  0  0  0
  1  2  1  0
  2  3  1  0
  3  4  2  0
  4  5  1  0
  5  6  2  0
  6  7  1  0
  2  7  2  0
  1  8  2  0
  1  9  1  0
  6 10  1  0
M  CHG  2   6   1   9  -1
M  END

> <chembl_id>
CHEMBL350675

> <chembl_pref_name>
TRIGONELLINE

$$$$

     RDKit          2D

 10 10  0  0  0  0  0  0  0  0999 V2000
   -0.9408    0.3707    0.0000 C   0  0  0  0  0  0  0  0  0  0  0  0
   -1.6552   -0.0418    0.0000 O   0  0  0  0  0  0  0  0  0  0  0  0
   -0.9408    1.1957    0.0000 O   0  0  0  0  0  0  0  0  0  0  0  0
   -0.2263   -0.0418    0.0000 C   0  0  0  0  0  0  0  0  0  0  0  0
    0.4882    0.3707    0.0000 C   0  0  0  0  0  0  0  0  0  0  0  0
    1.2027   -0.0418    0.0000 C   0  0  0  0  0  0  0  0  0  0  0  0
    0.4882    1.1957    0.0000 N   0  0  0  0  0  0  0  0  0  0  0  0
    1.2027   -0.8668    0.0000 C   0  0  0  0  0  0  0  0  0  0  0  0
    0.4882   -1.2793    0.0000 C   0  0  0  0  0  0  0  0  0  0  0  0
   -0.2263   -0.8668    0.0000 C   0  0  0  0  0  0  0  0  0  0  0  0
  1  2  2  0
  1  3  1  0
  1  4  1  0
  4  5  2  0
  4 10  1  0
  5  6  1  0
  5  7  1  0
  6  8  2  0
  8  9  1  0
  9 10  2  0
M  END

> <chembl_id>
CHEMBL14173

> <chembl_pref_name>
ANTHRANILIC ACID

$$$$

     RDKit          2D

  8  8  0  0  0  0  0  0  0  0999 V2000
    1.6499    0.9348    0.0000 O   0  0  0  0  0  0  0  0  0  0  0  0
    1.6499   -2.3652    0.0000 O   0  0  0  0  0  0  0  0  0  0  0  0
    2.3644   -0.3027    0.0000 N   0  0  0  0  0  0  0  0  0  0  0  0
    2.3644   -1.1277    0.0000 N   0  0  0  0  0  0  0  0  0  0  0  0
    1.6499    0.1098    0.0000 C   0  0  0  0  0  0  0  0  0  0  0  0
    1.6499   -1.5402    0.0000 C   0  0  0  0  0  0  0  0  0  0  0  0
    0.9354   -0.3027    0.0000 C   0  0  0  0  0  0  0  0  0  0  0  0
    0.9354   -1.1277    0.0000 C   0  0  0  0  0  0  0  0  0  0  0  0
  1  5  2  0
  2  6  2  0
  3  4  1  0
  3  5  1  0
  4  6  1  0
  5  7  1  0
  6  8  1  0
  7  8  2  0
M  END

> <chembl_id>
CHEMBL1489913

> <chembl_pref_name>
None

$$$$

     RDKit          2D

 10 10  0  0  0  0  0  0  0  0999 V2000
   -0.5000   -2.4167    0.0000 N   0  0  0  0  0  0  0  0  0  0  0  0
   -0.5083   -1.8167    0.0000 N   0  0  0  0  0  0  0  0  0  0  0  0
   -1.0208   -2.7167    0.0000 C   0  0  0  0  0  0  0  0  0  0  0  0
   -1.5375   -2.4167    0.0000 N   0  0  0  0  0  0  0  0  0  0  0  0
    0.0167   -1.5125    0.0000 O   0  0  0  0  0  0  0  0  0  0  0  0
    0.0167   -2.7125    0.0000 C   0  0  0  0  0  0  0  0  0  0  0  0
   -1.0208   -3.3250    0.0000 C   0  0  0  0  0  0  0  0  0  0  0  0
   -2.0583   -2.7250    0.0000 C   0  0  0  0  0  0  0  0  0  0  0  0
   -1.5375   -3.6250    0.0000 C   0  0  0  0  0  0  0  0  0  0  0  0
   -2.0583   -3.3250    0.0000 C   0  0  0  0  0  0  0  0  0  0  0  0
  2  1  1  0
  3  1  1  0
  4  3  2  0
  5  2  2  0
  6  1  1  0
  7  3  1  0
  8  4  1  0
  9  7  2  0
 10  9  1  0
  8 10  2  0
M  END

> <chembl_id>
CHEMBL165013

> <chembl_pref_name>
None

$$$$

     RDKit          2D

 10 10  0  0  0  0  0  0  0  0999 V2000
   19.8630    1.8467    0.0000 C   0  0  0  0  0  0  0  0  0  0  0  0
   19.8618    1.0209    0.0000 C   0  0  0  0  0  0  0  0  0  0  0  0
   20.5753    0.6087    0.0000 N   0  0  0  0  0  0  0  0  0  0  0  0
   21.2905    1.0213    0.0000 C   0  0  0  0  0  0  0  0  0  0  0  0
   21.2876    1.8504    0.0000 C   0  0  0  0  0  0  0  0  0  0  0  0
   20.5735    2.2588    0.0000 C   0  0  0  0  0  0  0  0  0  0  0  0
   22.0009    2.2650    0.0000 C   0  0  0  0  0  0  0  0  0  0  0  0
   22.7156    1.8560    0.0000 O   0  0  0  0  0  0  0  0  0  0  0  0
   21.9978    3.0886    0.0000 O   0  0  0  0  0  0  0  0  0  0  0  0
   19.1483    0.6096    0.0000 F   0  0  0  0  0  0  0  0  0  0  0  0
  2  3  1  0
  5  6  2  0
  6  1  1  0
  1  2  2  0
  3  4  2  0
  7  8  1  0
  7  9  2  0
  5  7  1  0
  4  5  1  0
  2 10  1  0
M  END

> <chembl_id>
CHEMBL247112

> <chembl_pref_name>
None

$$$$

     RDKit          2D

 11 11  0  0  0  0  0  0  0  0999 V2000
    0.2982    0.2611    0.0000 N   0  0  0  0  0  0  0  0  0  0  0  0
    1.7271    0.2611    0.0000 N   0  0  0  0  0  0  0  0  0  0  0  0
    0.2982    1.9111    0.0000 N   0  0  0  0  0  0  0  0  0  0  0  0
    1.0126   -0.9764    0.0000 C   0  0  0  0  0  0  0  0  0  0  0  0
    1.0126   -0.1514    0.0000 C   0  0  0  0  0  0  0  0  0  0  0  0
    1.7271   -1.3889    0.0000 C   0  0  0  0  0  0  0  0  0  0  0  0
    0.2982   -1.3889    0.0000 C   0  0  0  0  0  0  0  0  0  0  0  0
    1.7271   -2.2139    0.0000 C   0  0  0  0  0  0  0  0  0  0  0  0
    0.2982   -2.2139    0.0000 C   0  0  0  0  0  0  0  0  0  0  0  0
    1.0126   -2.6264    0.0000 C   0  0  0  0  0  0  0  0  0  0  0  0
    0.2982    1.0861    0.0000 C   0  0  0  0  0  0  0  0  0  0  0  0
  5  1  1  0
  1 11  1  0
  2  5  2  0
  3 11  3  0
  4  5  1  0
  4  6  2  0
  4  7  1  0
  6  8  1  0
  7  9  2  0
  8 10  2  0
  9 10  1  0
M  END

> <chembl_id>
CHEMBL1401401

> <chembl_pref_name>
None

$$$$

     RDKit          2D

 11 11  0  0  0  0  0  0  0  0999 V2000
   -0.0931   -6.1577    0.0000 C   0  0  0  0  0  0  0  0  0  0  0  0
   -0.0943   -6.9850    0.0000 C   0  0  0  0  0  0  0  0  0  0  0  0
    0.6205   -7.3978    0.0000 C   0  0  0  0  0  0  0  0  0  0  0  0
    1.3369   -6.9845    0.0000 C   0  0  0  0  0  0  0  0  0  0  0  0
    1.3340   -6.1541    0.0000 C   0  0  0  0  0  0  0  0  0  0  0  0
    0.6187   -5.7449    0.0000 C   0  0  0  0  0  0  0  0  0  0  0  0
   -0.8090   -7.3969    0.0000 N   0  0  0  0  0  0  0  0  0  0  0  0
    2.0469   -5.7389    0.0000 C   0  0  0  0  0  0  0  0  0  0  0  0
    2.7628   -6.1487    0.0000 C   0  0  0  0  0  0  0  0  0  0  0  0
    2.0437   -4.9140    0.0000 C   0  0  0  0  0  0  0  0  0  0  0  0
    2.7580   -5.3203    0.0000 C   0  0  0  0  0  0  0  0  0  0  0  0
  5  6  2  0
  6  1  1  0
  1  2  2  0
  2  7  1  0
  3  4  2  0
  5  8  1  0
  8  9  1  0
  4  5  1  0
  8 10  1  0
  2  3  1  0
  8 11  1  0
M  END

> <chembl_id>
CHEMBL1800270

> <chembl_pref_name>
None

$$$$

     RDKit          2D

 10 10  0  0  0  0  0  0  0  0999 V2000
    7.5886   -1.7953    0.0000 C   0  0  0  0  0  0  0  0  0  0  0  0
    7.5874   -2.6148    0.0000 N   0  0  0  0  0  0  0  0  0  0  0  0
    8.2955   -3.0238    0.0000 C   0  0  0  0  0  0  0  0  0  0  0  0
    9.0051   -2.6144    0.0000 C   0  0  0  0  0  0  0  0  0  0  0  0
    9.0023   -1.7917    0.0000 C   0  0  0  0  0  0  0  0  0  0  0  0
    8.2937   -1.3864    0.0000 C   0  0  0  0  0  0  0  0  0  0  0  0
    9.7085   -1.3804    0.0000 C   0  0  0  0  0  0  0  0  0  0  0  0
   10.4177   -1.7864    0.0000 O   0  0  0  0  0  0  0  0  0  0  0  0
    9.7054   -0.5633    0.0000 O   0  0  0  0  0  0  0  0  0  0  0  0
   10.4208   -2.6036    0.0000 C   0  0  0  0  0  0  0  0  0  0  0  0
  1  2  2  0
  2  3  1  0
  3  4  2  0
  4  5  1  0
  5  6  2  0
  6  1  1  0
  5  7  1  0
  7  8  1  0
  7  9  2  0
  8 10  1  0
M  END

> <chembl_id>
CHEMBL2251612

> <chembl_pref_name>
METHYL ISONICOTINATE

$$$$

     RDKit          2D

  9  9  0  0  0  0  0  0  0  0999 V2000
   -0.3457   -0.5924    0.0000 C   0  0  0  0  0  0  0  0  0  0  0  0
   -0.3457    0.2326    0.0000 C   0  0  0  0  0  0  0  0  0  0  0  0
    0.3687    0.6451    0.0000 C   0  0  0  0  0  0  0  0  0  0  0  0
    1.0832    0.2326    0.0000 C   0  0  0  0  0  0  0  0  0  0  0  0
    1.0832   -0.5924    0.0000 C   0  0  0  0  0  0  0  0  0  0  0  0
    0.3687   -1.0049    0.0000 C   0  0  0  0  0  0  0  0  0  0  0  0
   -1.0602   -1.0049    0.0000 O   0  0  0  0  0  0  0  0  0  0  0  0
   -1.0602    0.6451    0.0000 O   0  0  0  0  0  0  0  0  0  0  0  0
    0.3687    1.4701    0.0000 O   0  0  0  0  0  0  0  0  0  0  0  0
  1  2  2  0
  1  6  1  0
  1  7  1  0
  2  3  1  0
  2  8  1  0
  3  4  2  0
  3  9  1  0
  4  5  1  0
  5  6  2  0
M  END

> <chembl_id>
CHEMBL307145

> <chembl_pref_name>
PYROGALLOL

$$$$

     RDKit          2D

 10 10  0  0  0  0  0  0  0  0999 V2000
   -1.6644   -3.0460    0.0000 O   0  0  0  0  0  0  0  0  0  0  0  0
   -0.9500   -4.2835    0.0000 C   0  0  0  0  0  0  0  0  0  0  0  0
   -0.9500   -5.9335    0.0000 C   0  0  0  0  0  0  0  0  0  0  0  0
   -0.2355   -4.6960    0.0000 C   0  0  0  0  0  0  0  0  0  0  0  0
   -1.6644   -4.6960    0.0000 C   0  0  0  0  0  0  0  0  0  0  0  0
   -0.2355   -5.5210    0.0000 C   0  0  0  0  0  0  0  0  0  0  0  0
   -1.6644   -5.5210    0.0000 C   0  0  0  0  0  0  0  0  0  0  0  0
   -0.9500   -3.4585    0.0000 C   0  0  0  0  0  0  0  0  0  0  0  0
   -0.9500   -6.7585    0.0000 C   0  0  0  0  0  0  0  0  0  0  0  0
   -0.2355   -7.1710    0.0000 C   0  0  0  0  0  0  0  0  0  0  0  0
  1  8  2  0
  2  4  2  0
  2  5  1  0
  2  8  1  0
  3  6  2  0
  3  7  1  0
  3  9  1  0
  4  6  1  0
  5  7  2  0
  9 10  1  0
M  END

> <chembl_id>
CHEMBL1887227

> <chembl_pref_name>
None

$$$$

     RDKit          2D

 10 10  0  0  0  0  0  0  0  0999 V2000
    0.7500   -1.0323    0.0000 N   0  0  0  0  0  0  0  0  0  0  0  0
    1.2135    0.3943    0.0000 N   0  0  0  0  0  0  0  0  0  0  0  0
   -0.7500   -1.0323    0.0000 C   0  0  0  0  0  0  0  0  0  0  0  0
    1.6332   -2.2426    0.0000 C   0  0  0  0  0  0  0  0  0  0  0  0
   -1.2135    0.3943    0.0000 C   0  0  0  0  0  0  0  0  0  0  0  0
    0.0000    1.2760    0.0000 C   0  0  0  0  0  0  0  0  0  0  0  0
    2.8264   -2.1154    0.0000 N   0  0  0  0  0  0  0  0  0  0  0  0
    1.1470   -3.3397    0.0000 N   0  0  0  0  0  0  0  0  0  0  0  0
   -1.4553   -2.0031    0.0000 C   0  0  0  0  0  0  0  0  0  0  0  0
    0.0000    2.4760    0.0000 C   0  0  0  0  0  0  0  0  0  0  0  0
  1  2  1  0
  1  3  1  0
  1  4  1  0
  3  5  2  0
  2  6  2  0
  5  6  1  0
  4  7  2  0
  4  8  1  0
  3  9  1  0
  6 10  1  0
M  END

> <chembl_id>
CHEMBL451397

> <chembl_pref_name>
None

$$$$

     RDKit          2D

  7  7  0  0  0  0  0  0  0  0999 V2000
   -4.0572    2.1678    0.0000 C   0  0  0  0  0  0  0  0  0  0  0  0
   -3.3831    1.6934    0.0000 S   0  0  0  0  0  0  0  0  0  0  0  0
   -2.7241    2.1878    0.0000 C   0  0  0  0  0  0  0  0  0  0  0  0
   -2.9901    2.9681    0.0000 N   0  0  0  0  0  0  0  0  0  0  0  0
   -3.8143    2.9555    0.0000 N   0  0  0  0  0  0  0  0  0  0  0  0
   -2.0039    1.7833    0.0000 N   0  0  0  0  0  0  0  0  0  0  0  0
   -4.7804    1.7695    0.0000 C   0  0  0  0  0  0  0  0  0  0  0  0
  2  3  1  0
  3  4  2  0
  4  5  1  0
  5  1  2  0
  1  2  1  0
  3  6  1  0
  1  7  1  0
M  END

> <chembl_id>
CHEMBL1288960

> <chembl_pref_name>
None

$$$$

     RDKit          2D

  9  9  0  0  0  0  0  0  0  0999 V2000
    1.0157   -3.6164    0.0000 C   0  0  0  0  0  0  0  0  0  0  0  0
    1.6281   -2.2462    0.0000 C   0  0  0  0  0  0  0  0  0  0  0  0
    0.7500   -1.0323    0.0000 C   0  0  0  0  0  0  0  0  0  0  0  0
    1.7191   -4.5887    0.0000 C   0  0  0  0  0  0  0  0  0  0  0  0
   -0.1779   -3.7398    0.0000 C   0  0  0  0  0  0  0  0  0  0  0  0
    1.2135    0.3943    0.0000 N   0  0  0  0  0  0  0  0  0  0  0  0
    0.0000    1.2760    0.0000 C   0  0  0  0  0  0  0  0  0  0  0  0
   -1.2135    0.3943    0.0000 C   0  0  0  0  0  0  0  0  0  0  0  0
   -0.7500   -1.0323    0.0000 N   0  0  0  0  0  0  0  0  0  0  0  0
  1  2  1  0
  2  3  1  0
  1  4  1  0
  1  5  1  0
  3  6  1  0
  6  7  1  0
  7  8  2  0
  8  9  1  0
  9  3  2  0
M  END

> <chembl_id>
CHEMBL3810086

> <chembl_pref_name>
None

$$$$

     RDKit          2D

  8  8  0  0  0  0  0  0  0  0999 V2000
   -3.3194  -24.1782    0.0000 C   0  0  0  0  0  0  0  0  0  0  0  0
   -4.1046  -24.4336    0.0000 C   0  0  0  0  0  0  0  0  0  0  0  0
   -4.5874  -23.7657    0.0000 C   0  0  0  0  0  0  0  0  0  0  0  0
   -4.1046  -23.0979    0.0000 C   0  0  0  0  0  0  0  0  0  0  0  0
   -3.3194  -23.3532    0.0000 N   0  0  0  0  0  0  0  0  0  0  0  0
   -2.6486  -24.6656    0.0000 N   0  0  0  0  0  0  0  0  0  0  0  0
   -1.8949  -24.3299    0.0000 O   0  0  0  0  0  0  0  0  0  0  0  0
   -2.7347  -25.4861    0.0000 O   0  0  0  0  0  0  0  0  0  0  0  0
  3  4  2  0
  4  5  1  0
  1  5  1  0
  1  2  2  0
  2  3  1  0
  6  7  2  0
  6  8  1  0
  1  6  1  0
M  CHG  2   6   1   8  -1
M  END

> <chembl_id>
CHEMBL1651441

> <chembl_pref_name>
None

$$$$

     RDKit          2D

 10 10  0  0  0  0  0  0  0  0999 V2000
    0.9542   -0.2667    0.0000 C   0  0  0  0  0  0  0  0  0  0  0  0
    1.7792   -0.2667    0.0000 C   0  0  0  0  0  0  0  0  0  0  0  0
    0.5417   -0.9792    0.0000 C   0  0  0  0  0  0  0  0  0  0  0  0
    3.0167   -0.9792    0.0000 O   0  0  0  0  0  0  0  0  0  0  0  0
    2.1917   -0.9792    0.0000 C   0  0  0  0  0  0  0  0  0  0  0  0
   -0.2833   -0.9750    0.0000 C   0  0  0  0  0  0  0  0  0  0  0  0
    0.9542   -1.6875    0.0000 C   0  0  0  0  0  0  0  0  0  0  0  0
    0.5500   -2.4042    0.0000 C   0  0  0  0  0  0  0  0  0  0  0  0
   -0.6958   -1.6917    0.0000 C   0  0  0  0  0  0  0  0  0  0  0  0
   -0.2833   -2.4042    0.0000 C   0  0  0  0  0  0  0  0  0  0  0  0
  2  1  2  0
  3  1  1  0
  4  5  1  0
  5  2  1  0
  6  3  2  0
  7  3  1  0
  8  7  2  0
  9  6  1  0
 10  8  1  0
 10  9  2  0
M  END

> <chembl_id>
CHEMBL118958

> <chembl_pref_name>
None

$$$$

     RDKit          2D

 10 10  0  0  0  0  0  0  0  0999 V2000
   -1.3500    0.6750    0.0000 N   0  0  0  0  0  0  0  0  0  0  0  0
    0.0750    0.6750    0.0000 C   0  0  0  0  0  0  0  0  0  0  0  0
   -0.6375    1.0875    0.0000 C   0  0  0  0  0  0  0  0  0  0  0  0
    0.0750   -0.1500    0.0000 O   0  0  0  0  0  0  0  0  0  0  0  0
    0.7917    1.0875    0.0000 O   0  0  0  0  0  0  0  0  0  0  0  0
   -2.0708    1.0958    0.0000 C   0  0  0  0  0  0  0  0  0  0  0  0
   -1.3500   -0.1417    0.0000 C   0  0  0  0  0  0  0  0  0  0  0  0
   -2.0625   -0.5542    0.0000 C   0  0  0  0  0  0  0  0  0  0  0  0
   -2.7833    0.6833    0.0000 C   0  0  0  0  0  0  0  0  0  0  0  0
   -2.7833   -0.1417    0.0000 C   0  0  0  0  0  0  0  0  0  0  0  0
  2  3  1  0
  3  1  1  0
  4  2  2  0
  5  2  1  0
  6  1  2  0
  7  1  1  0
  8  7  2  0
  9  6  1  0
 10  8  1  0
  9 10  2  0
M  CHG  1   1   1
M  END

> <chembl_id>
CHEMBL134513

> <chembl_pref_name>
None

$$$$

     RDKit          2D

 10 10  0  0  0  0  0  0  0  0999 V2000
    5.4042   -6.6875    0.0000 C   0  0  0  0  0  0  0  0  0  0  0  0
    6.1250   -6.2750    0.0000 C   0  0  0  0  0  0  0  0  0  0  0  0
    6.1292   -5.4500    0.0000 N   0  0  0  0  0  0  0  0  0  0  0  0
    7.5542   -6.2792    0.0000 O   0  0  0  0  0  0  0  0  0  0  0  0
    6.8375   -6.6917    0.0000 C   0  0  0  0  0  0  0  0  0  0  0  0
    5.4042   -7.5125    0.0000 C   0  0  0  0  0  0  0  0  0  0  0  0
    4.6917   -6.2667    0.0000 C   0  0  0  0  0  0  0  0  0  0  0  0
    4.6917   -7.9167    0.0000 C   0  0  0  0  0  0  0  0  0  0  0  0
    3.9875   -6.6875    0.0000 C   0  0  0  0  0  0  0  0  0  0  0  0
    3.9875   -7.5125    0.0000 C   0  0  0  0  0  0  0  0  0  0  0  0
  2  1  1  0
  3  2  1  0
  4  5  1  0
  5  2  1  0
  6  1  2  0
  7  1  1  0
  8  6  1  0
  9  7  2  0
 10  9  1  0
 10  8  2  0
M  END

> <chembl_id>
CHEMBL280690

> <chembl_pref_name>
None

$$$$

     RDKit          2D

 10 10  0  0  0  0  0  0  0  0999 V2000
    3.1103   -5.0997    0.0000 C   0  0  0  0  0  0  0  0  0  0  0  0
    3.8478   -4.7566    0.0000 C   0  0  0  0  0  0  0  0  0  0  0  0
    4.5822   -5.1193    0.0000 C   0  0  0  0  0  0  0  0  0  0  0  0
    2.9193   -5.8962    0.0000 C   0  0  0  0  0  0  0  0  0  0  0  0
    4.7588   -5.9159    0.0000 C   0  0  0  0  0  0  0  0  0  0  0  0
    3.4234   -6.5412    0.0000 C   0  0  0  0  0  0  0  0  0  0  0  0
    4.2415   -6.5470    0.0000 C   0  0  0  0  0  0  0  0  0  0  0  0
    3.8573   -3.9395    0.0000 O   0  0  0  0  0  0  0  0  0  0  0  0
    2.4776   -4.5825    0.0000 O   0  0  0  0  0  0  0  0  0  0  0  0
    5.2252   -4.6150    0.0000 O   0  0  0  0  0  0  0  0  0  0  0  0
  1  2  1  0
  2  3  1  0
  1  4  2  0
  3  5  2  0
  4  6  1  0
  5  7  1  0
  6  7  2  0
  2  8  2  0
  1  9  1  0
  3 10  1  0
M  END

> <chembl_id>
CHEMBL3357560

> <chembl_pref_name>
None

$$$$

     RDKit          2D

  8  8  0  0  0  0  0  0  0  0999 V2000
    5.4875   -1.0917    0.0000 C   0  0  0  0  0  0  0  0  0  0  0  0
    4.7667   -0.6792    0.0000 C   0  0  0  0  0  0  0  0  0  0  0  0
    5.4875   -1.9250    0.0000 C   0  0  0  0  0  0  0  0  0  0  0  0
    4.7667    0.1458    0.0000 S   0  0  0  0  0  0  0  0  0  0  0  0
    6.2042   -2.3375    0.0000 Cl  0  0  0  0  0  0  0  0  0  0  0  0
    4.0542   -1.9250    0.0000 C   0  0  0  0  0  0  0  0  0  0  0  0
    4.0542   -1.1000    0.0000 C   0  0  0  0  0  0  0  0  0  0  0  0
    4.7667   -2.3375    0.0000 C   0  0  0  0  0  0  0  0  0  0  0  0
  2  1  2  0
  3  1  1  0
  4  2  1  0
  5  3  1  0
  6  8  1  0
  7  2  1  0
  8  3  2  0
  7  6  2  0
M  END

> <chembl_id>
CHEMBL332620

> <chembl_pref_name>
None

$$$$

     RDKit          2D

  8  8  0  0  0  0  0  0  0  0999 V2000
   -3.0642    0.1510    0.0000 Cl  0  0  0  0  0  0  0  0  0  0  0  0
   -1.6352    2.6260    0.0000 Cl  0  0  0  0  0  0  0  0  0  0  0  0
   -1.6352    0.1510    0.0000 N   0  0  0  0  0  0  0  0  0  0  0  0
   -0.9207    1.3885    0.0000 N   0  0  0  0  0  0  0  0  0  0  0  0
   -2.3497    0.5635    0.0000 C   0  0  0  0  0  0  0  0  0  0  0  0
   -1.6352    1.8010    0.0000 C   0  0  0  0  0  0  0  0  0  0  0  0
   -2.3497    1.3885    0.0000 C   0  0  0  0  0  0  0  0  0  0  0  0
   -0.9207    0.5635    0.0000 C   0  0  0  0  0  0  0  0  0  0  0  0
  1  5  1  0
  2  6  1  0
  3  5  2  0
  3  8  1  0
  4  6  1  0
  4  8  2  0
  5  7  1  0
  6  7  2  0
M  END

> <chembl_id>
CHEMBL1992013

> <chembl_pref_name>
None

$$$$

     RDKit          2D

  9  9  0  0  0  0  0  0  0  0999 V2000
    0.6033   -1.1733    0.0000 O   0  0  0  0  0  0  0  0  0  0  0  0
   -0.8256   -1.1733    0.0000 O   0  0  0  0  0  0  0  0  0  0  0  0
    0.6033    1.3017    0.0000 O   0  0  0  0  0  0  0  0  0  0  0  0
   -0.1111    0.0642    0.0000 C   0  0  0  0  0  0  0  0  0  0  0  0
   -0.1111   -0.7608    0.0000 C   0  0  0  0  0  0  0  0  0  0  0  0
    0.6033    0.4767    0.0000 C   0  0  0  0  0  0  0  0  0  0  0  0
    1.3178    0.0642    0.0000 C   0  0  0  0  0  0  0  0  0  0  0  0
    1.3178   -0.7608    0.0000 C   0  0  0  0  0  0  0  0  0  0  0  0
   -0.8256    0.4767    0.0000 C   0  0  0  0  0  0  0  0  0  0  0  0
  1  5  1  0
  1  8  1  0
  2  5  2  0
  3  6  1  0
  4  5  1  0
  4  6  2  0
  4  9  1  0
  6  7  1  0
  7  8  2  0
M  END

> <chembl_id>
CHEMBL1350127

> <chembl_pref_name>
None

$$$$

     RDKit          2D

  8  8  0  0  0  0  0  0  0  0999 V2000
   -3.0664   -3.9141    0.0000 N   0  0  0  0  0  0  0  0  0  0  0  0
   -2.2414   -3.9141    0.0000 N   0  0  0  0  0  0  0  0  0  0  0  0
   -1.9865   -3.1295    0.0000 N   0  0  0  0  0  0  0  0  0  0  0  0
   -2.6539   -2.6446    0.0000 C   0  0  0  0  0  0  0  0  0  0  0  0
   -3.3214   -3.1295    0.0000 N   0  0  0  0  0  0  0  0  0  0  0  0
   -2.6539   -1.8196    0.0000 C   0  0  0  0  0  0  0  0  0  0  0  0
   -1.9395   -1.4071    0.0000 C   0  0  0  0  0  0  0  0  0  0  0  0
   -1.9395   -0.5821    0.0000 N   0  0  0  0  0  0  0  0  0  0  0  0
  3  4  2  0
  4  5  1  0
  5  1  1  0
  1  2  2  0
  4  6  1  0
  6  7  1  0
  2  3  1  0
  7  8  1  0
M  END

> <chembl_id>
CHEMBL208989

> <chembl_pref_name>
None

$$$$

     RDKit          2D

 10 11  0  0  0  0  0  0  0  0999 V2000
   11.5495   -7.4625    0.0000 C   0  0  0  0  0  0  0  0  0  0  0  0
   12.2615   -7.0542    0.0000 C   0  0  0  0  0  0  0  0  0  0  0  0
   12.2615   -6.2292    0.0000 N   0  0  0  0  0  0  0  0  0  0  0  0
   11.5495   -5.8125    0.0000 C   0  0  0  0  0  0  0  0  0  0  0  0
   10.8375   -7.0542    0.0000 C   0  0  0  0  0  0  0  0  0  0  0  0
   10.8375   -6.2246    0.0000 C   0  0  0  0  0  0  0  0  0  0  0  0
   10.0486   -5.9682    0.0000 C   0  0  0  0  0  0  0  0  0  0  0  0
    9.5609   -6.6393    0.0000 C   0  0  0  0  0  0  0  0  0  0  0  0
   10.0485   -7.3104    0.0000 N   0  0  0  0  0  0  0  0  0  0  0  0
   11.5515   -4.9875    0.0000 O   0  0  0  0  0  0  0  0  0  0  0  0
  5  6  2  0
  6  4  1  0
  5  1  1  0
  1  2  1  0
  2  3  1  0
  6  7  1  0
  7  8  2  0
  8  9  1  0
  9  5  1  0
  3  4  1  0
  4 10  2  0
M  END

> <chembl_id>
CHEMBL254596

> <chembl_pref_name>
None

$$$$

     RDKit          2D

  9  9  0  0  0  0  0  0  0  0999 V2000
    6.5589  -23.2353    0.0000 C   0  0  0  0  0  0  0  0  0  0  0  0
    6.5503  -22.4103    0.0000 C   0  0  0  0  0  0  0  0  0  0  0  0
    7.2577  -21.9904    0.0000 C   0  0  0  0  0  0  0  0  0  0  0  0
    7.9778  -22.3955    0.0000 C   0  0  0  0  0  0  0  0  0  0  0  0
    7.9864  -23.2204    0.0000 C   0  0  0  0  0  0  0  0  0  0  0  0
    7.2749  -23.6404    0.0000 N   0  0  0  0  0  0  0  0  0  0  0  0
    8.6894  -21.9756    0.0000 N   0  0  0  0  0  0  0  0  0  0  0  0
    7.2491  -21.1655    0.0000 N   0  0  0  0  0  0  0  0  0  0  0  0
    5.8302  -22.0053    0.0000 N   0  0  0  0  0  0  0  0  0  0  0  0
  1  2  1  0
  2  3  2  0
  3  4  1  0
  4  5  2  0
  5  6  1  0
  1  6  2  0
  4  7  1  0
  3  8  1  0
  2  9  1  0
M  END

> <chembl_id>
CHEMBL1928398

> <chembl_pref_name>
None

$$$$

     RDKit          2D

 11 11  0  0  0  0  0  0  0  0999 V2000
   13.1819   -6.5583    0.0000 C   0  0  0  0  0  0  0  0  0  0  0  0
   13.1807   -7.3857    0.0000 C   0  0  0  0  0  0  0  0  0  0  0  0
   13.8956   -7.7985    0.0000 C   0  0  0  0  0  0  0  0  0  0  0  0
   14.6120   -7.3852    0.0000 C   0  0  0  0  0  0  0  0  0  0  0  0
   14.6091   -6.5547    0.0000 C   0  0  0  0  0  0  0  0  0  0  0  0
   13.8938   -6.1455    0.0000 C   0  0  0  0  0  0  0  0  0  0  0  0
   13.8913   -5.3205    0.0000 C   0  0  0  0  0  0  0  0  0  0  0  0
   14.6045   -4.9059    0.0000 C   0  0  0  0  0  0  0  0  0  0  0  0
   14.6021   -4.0809    0.0000 C   0  0  0  0  0  0  0  0  0  0  0  0
   13.8954   -8.6235    0.0000 O   0  0  0  0  0  0  0  0  0  0  0  0
   13.1808   -9.0359    0.0000 C   0  0  0  0  0  0  0  0  0  0  0  0
  5  6  2  0
  6  1  1  0
  1  2  2  0
  6  7  1  0
  3  4  2  0
  7  8  1  0
  8  9  2  0
  4  5  1  0
  3 10  1  0
  2  3  1  0
 10 11  1  0
M  END

> <chembl_id>
CHEMBL470671

> <chembl_pref_name>
ESTRAGOLE

$$$$

     RDKit          2D

 10 10  0  0  0  0  0  0  0  0999 V2000
   10.1986   -7.8291    0.0000 C   0  0  0  0  0  0  0  0  0  0  0  0
   10.1974   -8.6565    0.0000 C   0  0  0  0  0  0  0  0  0  0  0  0
   10.9122   -9.0694    0.0000 N   0  0  0  0  0  0  0  0  0  0  0  0
   11.6287   -8.6560    0.0000 C   0  0  0  0  0  0  0  0  0  0  0  0
   11.6258   -7.8255    0.0000 C   0  0  0  0  0  0  0  0  0  0  0  0
   10.9104   -7.4164    0.0000 C   0  0  0  0  0  0  0  0  0  0  0  0
   10.9080   -6.5914    0.0000 C   0  0  0  0  0  0  0  0  0  0  0  0
   11.6212   -6.1767    0.0000 N   0  0  0  0  0  0  0  0  0  0  0  0
   10.1923   -6.1810    0.0000 O   0  0  0  0  0  0  0  0  0  0  0  0
   12.3369   -6.5871    0.0000 O   0  0  0  0  0  0  0  0  0  0  0  0
  2  3  1  0
  5  6  2  0
  6  1  1  0
  1  2  2  0
  6  7  1  0
  3  4  2  0
  7  8  1  0
  7  9  2  0
  4  5  1  0
  8 10  1  0
M  END

> <chembl_id>
CHEMBL454652

> <chembl_pref_name>
None

$$$$

     RDKit          2D

 10 10  0  0  0  0  0  0  0  0999 V2000
   -0.2858    0.6600    0.0000 O   0  0  0  0  0  0  0  0  0  0  0  0
   -1.0003   -0.5775    0.0000 N   0  0  0  0  0  0  0  0  0  0  0  0
    1.1432    2.3100    0.0000 N   0  0  0  0  0  0  0  0  0  0  0  0
   -0.2858   -0.1650    0.0000 C   0  0  0  0  0  0  0  0  0  0  0  0
    0.4287   -0.5775    0.0000 C   0  0  0  0  0  0  0  0  0  0  0  0
   -1.0003   -1.4025    0.0000 C   0  0  0  0  0  0  0  0  0  0  0  0
    0.4287   -1.4025    0.0000 C   0  0  0  0  0  0  0  0  0  0  0  0
    0.4287    1.0725    0.0000 C   0  0  0  0  0  0  0  0  0  0  0  0
   -0.2858   -1.8150    0.0000 C   0  0  0  0  0  0  0  0  0  0  0  0
    0.4287    1.8975    0.0000 C   0  0  0  0  0  0  0  0  0  0  0  0
  1  4  1  0
  1  8  1  0
  2  4  1  0
  2  6  2  0
  3 10  1  0
  4  5  2  0
  5  7  1  0
  6  9  1  0
  7  9  2  0
  8 10  1  0
M  END

> <chembl_id>
CHEMBL1741877

> <chembl_pref_name>
None

$$$$

     RDKit          2D

  9  9  0  0  0  0  0  0  0  0999 V2000
   -0.0181  -12.6250    0.0000 C   0  0  0  0  0  0  0  0  0  0  0  0
   -0.0193  -13.4523    0.0000 C   0  0  0  0  0  0  0  0  0  0  0  0
    0.6956  -13.8652    0.0000 N   0  0  0  0  0  0  0  0  0  0  0  0
    1.4120  -13.4519    0.0000 C   0  0  0  0  0  0  0  0  0  0  0  0
    1.4091  -12.6213    0.0000 C   0  0  0  0  0  0  0  0  0  0  0  0
    0.6938  -12.2122    0.0000 C   0  0  0  0  0  0  0  0  0  0  0  0
    2.1271  -13.8632    0.0000 N   0  0  0  0  0  0  0  0  0  0  0  0
    2.1284  -14.6882    0.0000 O   0  0  0  0  0  0  0  0  0  0  0  0
    2.8409  -13.4496    0.0000 C   0  0  0  0  0  0  0  0  0  0  0  0
  4  5  1  0
  2  3  1  0
  5  6  2  0
  6  1  1  0
  1  2  2  0
  4  7  1  0
  3  4  2  0
  7  8  1  0
  7  9  1  0
M  END

> <chembl_id>
CHEMBL1916603

> <chembl_pref_name>
None

$$$$

     RDKit          2D

  9  9  0  0  0  0  0  0  0  0999 V2000
   -1.9658    0.0718    0.0000 N   0  0  0  0  0  0  0  0  0  0  0  0
   -0.9658    0.0694    0.0000 S   0  0  0  0  0  0  0  0  0  0  0  0
   -0.9634    1.0694    0.0000 O   0  0  0  0  0  0  0  0  0  0  0  0
   -0.9682   -0.9306    0.0000 O   0  0  0  0  0  0  0  0  0  0  0  0
    0.0342    0.0670    0.0000 C   0  0  0  0  0  0  0  0  0  0  0  0
    0.6240    0.8744    0.0000 N   0  0  0  0  0  0  0  0  0  0  0  0
    1.5742    0.5632    0.0000 C   0  0  0  0  0  0  0  0  0  0  0  0
    1.5718   -0.4368    0.0000 C   0  0  0  0  0  0  0  0  0  0  0  0
    0.6200   -0.7434    0.0000 N   0  0  0  0  0  0  0  0  0  0  0  0
  1  2  1  0
  2  3  2  0
  2  4  2  0
  2  5  1  0
  5  6  2  0
  6  7  1  0
  7  8  2  0
  8  9  1  0
  9  5  1  0
M  END

> <chembl_id>
CHEMBL4574085

> <chembl_pref_name>
None

$$$$

     RDKit          2D

  9 10  0  0  0  0  0  0  0  0999 V2000
   -1.2338    0.1936    0.0000 C   0  0  0  0  0  0  0  0  0  0  0  0
   -0.6466    1.0032    0.0000 C   0  0  0  0  0  0  0  0  0  0  0  0
    0.3046    0.6948    0.0000 N   0  0  0  0  0  0  0  0  0  0  0  0
    0.3054   -0.3052    0.0000 C   0  0  0  0  0  0  0  0  0  0  0  0
   -0.6454   -0.6148    0.0000 N   0  0  0  0  0  0  0  0  0  0  0  0
    1.1718   -0.8044    0.0000 C   0  0  0  0  0  0  0  0  0  0  0  0
    2.0374   -0.3038    0.0000 O   0  0  0  0  0  0  0  0  0  0  0  0
    2.0366    0.6962    0.0000 C   0  0  0  0  0  0  0  0  0  0  0  0
    1.1702    1.1956    0.0000 C   0  0  0  0  0  0  0  0  0  0  0  0
  1  2  2  0
  2  3  1  0
  3  4  1  0
  4  5  2  0
  4  6  1  0
  6  7  1  0
  7  8  1  0
  8  9  1  0
  5  1  1  0
  9  3  1  0
M  END

> <chembl_id>
CHEMBL4518714

> <chembl_pref_name>
None

$$$$

     RDKit          2D

  7  7  0  0  0  0  0  0  0  0999 V2000
   -0.1625    0.5333    0.0000 S   0  0  0  0  0  0  0  0  0  0  0  0
    0.5042    1.0208    0.0000 C   0  0  0  0  0  0  0  0  0  0  0  0
   -0.8333    1.0208    0.0000 C   0  0  0  0  0  0  0  0  0  0  0  0
    0.2542    1.8000    0.0000 N   0  0  0  0  0  0  0  0  0  0  0  0
   -0.5708    1.8083    0.0000 N   0  0  0  0  0  0  0  0  0  0  0  0
    1.2875    0.7625    0.0000 S   0  0  0  0  0  0  0  0  0  0  0  0
   -1.6208    0.7708    0.0000 N   0  0  0  0  0  0  0  0  0  0  0  0
  2  1  1  0
  3  1  1  0
  4  2  2  0
  5  3  2  0
  6  2  1  0
  7  3  1  0
  5  4  1  0
M  END

> <chembl_id>
CHEMBL372507

> <chembl_pref_name>
None

$$$$

     RDKit          2D

 11 12  0  0  0  0  0  0  0  0999 V2000
    1.4375    0.5875    0.0000 C   0  0  0  0  0  0  0  0  0  0  0  0
    2.1042    0.1083    0.0000 N   0  0  0  0  0  0  0  0  0  0  0  0
    0.7667    0.1083    0.0000 N   0  0  0  0  0  0  0  0  0  0  0  0
    1.8500   -0.6792    0.0000 C   0  0  0  0  0  0  0  0  0  0  0  0
    1.0250   -0.6792    0.0000 C   0  0  0  0  0  0  0  0  0  0  0  0
    1.4292    1.4125    0.0000 C   0  0  0  0  0  0  0  0  0  0  0  0
    2.1500    1.8333    0.0000 C   0  0  0  0  0  0  0  0  0  0  0  0
    0.7167    1.8250    0.0000 C   0  0  0  0  0  0  0  0  0  0  0  0
    0.7167    2.6458    0.0000 C   0  0  0  0  0  0  0  0  0  0  0  0
    2.1500    2.6500    0.0000 C   0  0  0  0  0  0  0  0  0  0  0  0
    1.4292    3.0625    0.0000 C   0  0  0  0  0  0  0  0  0  0  0  0
  2  1  1  0
  3  1  1  0
  4  2  1  0
  5  3  1  0
  6  1  1  0
  7  6  2  0
  8  6  1  0
  9  8  2  0
 10  7  1  0
 11  9  1  0
  4  5  2  0
 11 10  2  0
M  END

> <chembl_id>
CHEMBL98327

> <chembl_pref_name>
None

$$$$

     RDKit          2D

  9  9  0  0  0  0  0  0  0  0999 V2000
    1.3052    1.7162    0.0000 C   0  0  0  0  0  0  0  0  0  0  0  0
    0.4360    1.2216    0.0000 C   0  0  0  0  0  0  0  0  0  0  0  0
    0.4296    0.2218    0.0000 C   0  0  0  0  0  0  0  0  0  0  0  0
   -0.4396   -0.2728    0.0000 N   0  0  0  0  0  0  0  0  0  0  0  0
   -1.3024    0.2328    0.0000 C   0  0  0  0  0  0  0  0  0  0  0  0
   -2.1716   -0.2616    0.0000 C   0  0  0  0  0  0  0  0  0  0  0  0
   -3.0344    0.2440    0.0000 O   0  0  0  0  0  0  0  0  0  0  0  0
   -1.2960    1.2328    0.0000 C   0  0  0  0  0  0  0  0  0  0  0  0
   -0.4268    1.7272    0.0000 N   0  0  0  0  0  0  0  0  0  0  0  0
  1  2  1  0
  2  3  2  0
  3  4  1  0
  4  5  2  0
  5  6  1  0
  6  7  1  0
  5  8  1  0
  8  9  2  0
  9  2  1  0
M  END

> <chembl_id>
CHEMBL4591833

> <chembl_pref_name>
None

$$$$
 
     RDKit          2D

 10 10  0  0  0  0  0  0  0  0999 V2000
    4.3253   -2.5382    0.0000 C   0  0  0  0  0  0  0  0  0  0  0  0
    5.0330   -2.1296    0.0000 C   0  0  0  0  0  0  0  0  0  0  0  0
    5.7408   -2.5382    0.0000 O   0  0  0  0  0  0  0  0  0  0  0  0
    6.4485   -2.1296    0.0000 C   0  0  0  0  0  0  0  0  0  0  0  0
    7.1562   -2.5382    0.0000 C   0  0  0  0  0  0  0  0  0  0  0  0
    5.0330   -1.3125    0.0000 O   0  0  0  0  0  0  0  0  0  0  0  0
    3.5788   -2.2059    0.0000 C   0  0  0  0  0  0  0  0  0  0  0  0
    3.0320   -2.8132    0.0000 N   0  0  0  0  0  0  0  0  0  0  0  0
    3.4407   -3.5209    0.0000 N   0  0  0  0  0  0  0  0  0  0  0  0
    4.2399   -3.3509    0.0000 C   0  0  0  0  0  0  0  0  0  0  0  0
  1  2  1  0
  2  3  1  0
  3  4  1  0
  4  5  1  0
  2  6  2  0
  1  7  2  0
  7  8  1  0
  8  9  1  0
  9 10  2  0
 10  1  1  0
M  END

> <chembl_id>
CHEMBL4461273

> <chembl_pref_name>
None

$$$$

     RDKit          2D

  8  8  0  0  0  0  0  0  0  0999 V2000
    0.1786    0.5156    0.0000 C   0  0  0  0  0  0  0  0  0  0  0  0
    0.8931    0.1031    0.0000 C   0  0  0  0  0  0  0  0  0  0  0  0
    0.8931   -0.7219    0.0000 N   0  0  0  0  0  0  0  0  0  0  0  0
    0.1786   -1.1344    0.0000 C   0  0  0  0  0  0  0  0  0  0  0  0
   -0.5359   -0.7219    0.0000 C   0  0  0  0  0  0  0  0  0  0  0  0
   -0.5359    0.1031    0.0000 C   0  0  0  0  0  0  0  0  0  0  0  0
    0.1786    1.3406    0.0000 N   0  0  0  0  0  0  0  0  0  0  0  0
   -1.2503    0.5156    0.0000 N   0  0  0  0  0  0  0  0  0  0  0  0
  1  2  2  0
  1  6  1  0
  2  3  1  0
  3  4  2  0
  4  5  1  0
  5  6  2  0
  1  7  1  0
  6  8  1  0
M  END

> <chembl_id>
CHEMBL354077

> <chembl_pref_name>
AMIFAMPRIDINE

$$$$

     RDKit          2D

  9  9  0  0  0  0  0  0  0  0999 V2000
    4.8252   -9.1666    0.0000 N   0  0  0  0  0  0  0  0  0  0  0  0
    6.9688  -10.4094    0.0000 C   0  0  0  0  0  0  0  0  0  0  0  0
    6.2537   -9.9966    0.0000 C   0  0  0  0  0  0  0  0  0  0  0  0
    4.8310   -9.9999    0.0000 C   0  0  0  0  0  0  0  0  0  0  0  0
    5.5458  -10.4089    0.0000 C   0  0  0  0  0  0  0  0  0  0  0  0
    7.6839   -9.9966    0.0000 N   0  0  0  0  0  0  0  0  0  0  0  0
    5.5443   -8.7569    0.0000 C   0  0  0  0  0  0  0  0  0  0  0  0
    6.2573   -9.1705    0.0000 C   0  0  0  0  0  0  0  0  0  0  0  0
    5.5477   -7.9312    0.0000 Cl  0  0  0  0  0  0  0  0  0  0  0  0
  2  3  1  0
  3  8  2  0
  7  1  2  0
  1  4  1  0
  4  5  2  0
  5  3  1  0
  2  6  1  0
  7  8  1  0
  7  9  1  0
M  END

> <chembl_id>
CHEMBL4068784

> <chembl_pref_name>
None

$$$$

     RDKit          2D

 10 10  0  0  0  0  0  0  0  0999 V2000
    2.0417   -5.7292    0.0000 C   0  0  0  0  0  0  0  0  0  0  0  0
    1.3292   -6.1417    0.0000 C   0  0  0  0  0  0  0  0  0  0  0  0
    2.0417   -4.9042    0.0000 O   0  0  0  0  0  0  0  0  0  0  0  0
    0.6167   -5.7292    0.0000 C   0  0  0  0  0  0  0  0  0  0  0  0
    2.7542   -6.1417    0.0000 O   0  0  0  0  0  0  0  0  0  0  0  0
    1.3292   -6.9625    0.0000 C   0  0  0  0  0  0  0  0  0  0  0  0
    0.6167   -4.9042    0.0000 C   0  0  0  0  0  0  0  0  0  0  0  0
   -0.0958   -6.1417    0.0000 C   0  0  0  0  0  0  0  0  0  0  0  0
    0.6167   -7.3792    0.0000 C   0  0  0  0  0  0  0  0  0  0  0  0
   -0.0958   -6.9667    0.0000 C   0  0  0  0  0  0  0  0  0  0  0  0
  2  1  1  0
  3  1  2  0
  4  2  2  0
  5  1  1  0
  6  2  1  0
  7  4  1  0
  8  4  1  0
  9  6  2  0
 10  9  1  0
 10  8  2  0
M  END

> <chembl_id>
CHEMBL114957

> <chembl_pref_name>
TOLUIC ACID

$$$$

     RDKit          2D

 10 10  0  0  0  0  0  0  0  0999 V2000
   17.4783  -23.1666    0.0000 O   0  0  0  0  0  0  0  0  0  0  0  0
   18.2955  -23.1666    0.0000 C   0  0  0  0  0  0  0  0  0  0  0  0
   18.7041  -22.4599    0.0000 C   0  0  0  0  0  0  0  0  0  0  0  0
   19.5213  -22.4599    0.0000 C   0  0  0  0  0  0  0  0  0  0  0  0
   19.9299  -21.7532    0.0000 O   0  0  0  0  0  0  0  0  0  0  0  0
   19.9299  -23.1666    0.0000 C   0  0  0  0  0  0  0  0  0  0  0  0
   19.5213  -23.8733    0.0000 C   0  0  0  0  0  0  0  0  0  0  0  0
   18.7041  -23.8733    0.0000 C   0  0  0  0  0  0  0  0  0  0  0  0
   20.7470  -23.1666    0.0000 C   0  0  0  0  0  0  0  0  0  0  0  0
   21.1556  -23.8733    0.0000 C   0  0  0  0  0  0  0  0  0  0  0  0
  1  2  1  0
  2  3  1  0
  3  4  2  0
  4  5  1  0
  4  6  1  0
  6  7  2  0
  7  8  1  0
  2  8  2  0
  9 10  1  0
  6  9  1  0
M  END

> <chembl_id>
CHEMBL2332776

> <chembl_pref_name>
None

$$$$

     RDKit          2D

 10 10  0  0  0  0  0  0  0  0999 V2000
   16.0125   -9.4625    0.0000 N   0  0  0  0  0  0  0  0  0  0  0  0
   16.8375   -9.4625    0.0000 N   0  0  0  0  0  0  0  0  0  0  0  0
   17.0943   -8.6784    0.0000 C   0  0  0  0  0  0  0  0  0  0  0  0
   16.4250   -8.1917    0.0000 C   0  0  0  0  0  0  0  0  0  0  0  0
   15.7599   -8.6784    0.0000 C   0  0  0  0  0  0  0  0  0  0  0  0
   17.8826   -8.4226    0.0000 C   0  0  0  0  0  0  0  0  0  0  0  0
   18.4950   -8.9755    0.0000 O   0  0  0  0  0  0  0  0  0  0  0  0
   18.0553   -7.6159    0.0000 O   0  0  0  0  0  0  0  0  0  0  0  0
   14.9752   -8.4238    0.0000 C   0  0  0  0  0  0  0  0  0  0  0  0
   14.8033   -7.6169    0.0000 C   0  0  0  0  0  0  0  0  0  0  0  0
  5  1  2  0
  1  2  1  0
  2  3  1  0
  6  7  1  0
  6  8  2  0
  3  6  1  0
  3  4  2  0
  5  9  1  0
  4  5  1  0
  9 10  1  0
M  END

> <chembl_id>
CHEMBL394498

> <chembl_pref_name>
None

$$$$

     RDKit          2D

  9 10  0  0  0  0  0  0  0  0999 V2000
   -1.5076   -1.2370    0.0000 N   0  0  0  0  0  0  0  0  0  0  0  0
   -0.7998   -0.5304    0.0000 C   0  0  0  0  0  0  0  0  0  0  0  0
   -0.7990    0.4696    0.0000 C   0  0  0  0  0  0  0  0  0  0  0  0
    0.2010    0.4688    0.0000 C   0  0  0  0  0  0  0  0  0  0  0  0
    1.0674    0.9682    0.0000 C   0  0  0  0  0  0  0  0  0  0  0  0
    1.9330    0.4674    0.0000 C   0  0  0  0  0  0  0  0  0  0  0  0
    1.9322   -0.5326    0.0000 C   0  0  0  0  0  0  0  0  0  0  0  0
    1.0658   -1.0318    0.0000 C   0  0  0  0  0  0  0  0  0  0  0  0
    0.2002   -0.5312    0.0000 C   0  0  0  0  0  0  0  0  0  0  0  0
  1  2  1  0
  2  3  1  0
  3  4  1  0
  4  5  2  0
  5  6  1  0
  6  7  2  0
  7  8  1  0
  8  9  2  0
  9  2  1  0
  9  4  1  0
M  END

> <chembl_id>
CHEMBL4588319

> <chembl_pref_name>
None

$$$$

     RDKit          2D

  9  9  0  0  1  0  0  0  0  0999 V2000
    6.2792   -2.9125    0.0000 N   0  0  0  0  0  0  0  0  0  0  0  0
    5.6750   -2.9125    0.0000 C   0  0  0  0  0  0  0  0  0  0  0  0
    5.9792   -1.9875    0.0000 N   0  0  0  0  0  0  0  0  0  0  0  0
    6.4625   -2.3375    0.0000 C   0  0  0  0  0  0  0  0  0  0  0  0
    5.4875   -2.3375    0.0000 C   0  0  0  0  0  0  0  0  0  0  0  0
    5.3167   -3.3917    0.0000 C   0  0  0  0  0  0  0  0  0  0  0  0
    4.3667   -3.8167    0.0000 N   0  0  0  0  0  0  0  0  0  0  0  0
    4.7250   -3.3292    0.0000 C   0  0  0  0  0  0  0  0  0  0  0  0
    4.4792   -2.7792    0.0000 C   0  0  0  0  0  0  0  0  0  0  0  0
  2  1  1  0
  3  4  1  0
  4  1  2  0
  5  2  2  0
  6  2  1  0
  7  8  1  0
  8  6  1  0
  8  9  1  1
  5  3  1  0
M  END

> <chembl_id>
CHEMBL11919

> <chembl_pref_name>
None

$$$$

     RDKit          2D

  9  9  0  0  0  0  0  0  0  0999 V2000
    9.2392  -27.1164    0.0000 S   0  0  0  0  0  0  0  0  0  0  0  0
    8.4839  -25.9134    0.0000 N   0  0  0  0  0  0  0  0  0  0  0  0
    7.8199  -27.1724    0.0000 N   0  0  0  0  0  0  0  0  0  0  0  0
    7.0610  -25.9677    0.0000 C   0  0  0  0  0  0  0  0  0  0  0  0
    7.0939  -26.7895    0.0000 C   0  0  0  0  0  0  0  0  0  0  0  0
    7.7579  -25.5305    0.0000 N   0  0  0  0  0  0  0  0  0  0  0  0
    8.5131  -26.7335    0.0000 C   0  0  0  0  0  0  0  0  0  0  0  0
    6.3349  -25.5847    0.0000 C   0  0  0  0  0  0  0  0  0  0  0  0
    6.4027  -27.2255    0.0000 O   0  0  0  0  0  0  0  0  0  0  0  0
  6  4  2  0
  6  2  1  0
  4  8  1  0
  5  4  1  0
  2  7  2  0
  7  1  1  0
  3  5  1  0
  7  3  1  0
  5  9  2  0
M  END

> <chembl_id>
CHEMBL3272983

> <chembl_pref_name>
None

$$$$

     RDKit          2D

 11 12  0  0  0  0  0  0  0  0999 V2000
    0.0000    0.7486    0.0000 C   0  0  0  0  0  0  0  0  0  0  0  0
    0.0000   -0.7486    0.0000 C   0  0  0  0  0  0  0  0  0  0  0  0
   -1.2964    1.4973    0.0000 C   0  0  0  0  0  0  0  0  0  0  0  0
   -1.2964   -1.4973    0.0000 C   0  0  0  0  0  0  0  0  0  0  0  0
   -2.6111    0.7486    0.0000 C   0  0  0  0  0  0  0  0  0  0  0  0
   -3.6486    1.3517    0.0000 N   0  0  0  0  0  0  0  0  0  0  0  0
   -2.6111   -0.7486    0.0000 C   0  0  0  0  0  0  0  0  0  0  0  0
    1.2964    1.4973    0.0000 C   0  0  0  0  0  0  0  0  0  0  0  0
    1.2964   -1.4973    0.0000 C   0  0  0  0  0  0  0  0  0  0  0  0
    2.5929    0.7486    0.0000 C   0  0  0  0  0  0  0  0  0  0  0  0
    2.5929   -0.7486    0.0000 C   0  0  0  0  0  0  0  0  0  0  0  0
  1  2  1  0
  1  3  1  0
  2  4  1  0
  3  5  1  0
  5  6  1  0
  4  7  1  0
  5  7  1  0
  1  8  2  0
  2  9  2  0
  8 10  1  0
  9 11  1  0
 10 11  2  0
M  END

> <chembl_id>
CHEMBL30294

> <chembl_pref_name>
None

$$$$

     RDKit          2D

 10 10  0  0  0  0  0  0  0  0999 V2000
    0.7806    2.9538    0.0000 C   0  0  0  0  0  0  0  0  0  0  0  0
   -0.0864    2.4556    0.0000 O   0  0  0  0  0  0  0  0  0  0  0  0
   -0.0884    1.4556    0.0000 C   0  0  0  0  0  0  0  0  0  0  0  0
    0.7766    0.9540    0.0000 C   0  0  0  0  0  0  0  0  0  0  0  0
    0.7746   -0.0460    0.0000 C   0  0  0  0  0  0  0  0  0  0  0  0
   -0.0926   -0.5442    0.0000 N   0  0  0  0  0  0  0  0  0  0  0  0
   -0.9576   -0.0426    0.0000 C   0  0  0  0  0  0  0  0  0  0  0  0
   -1.8246   -0.5408    0.0000 C   0  0  0  0  0  0  0  0  0  0  0  0
   -1.8266   -1.5408    0.0000 N   0  0  0  0  0  0  0  0  0  0  0  0
   -0.9556    0.9574    0.0000 C   0  0  0  0  0  0  0  0  0  0  0  0
  1  2  1  0
  2  3  1  0
  3  4  2  0
  4  5  1  0
  5  6  2  0
  6  7  1  0
  7  8  1  0
  8  9  1  0
  7 10  2  0
 10  3  1  0
M  END

> <chembl_id>
CHEMBL4582296

> <chembl_pref_name>
None

$$$$

     RDKit          2D

  9  9  0  0  0  0  0  0  0  0999 V2000
    2.5046   -0.7250    0.0000 C   0  0  0  0  0  0  0  0  0  0  0  0
    1.5096   -0.6244    0.0000 C   0  0  0  0  0  0  0  0  0  0  0  0
    0.8434   -1.3700    0.0000 C   0  0  0  0  0  0  0  0  0  0  0  0
   -0.0716   -0.9670    0.0000 C   0  0  0  0  0  0  0  0  0  0  0  0
   -0.9358   -1.4704    0.0000 C   0  0  0  0  0  0  0  0  0  0  0  0
   -1.8038   -0.9738    0.0000 O   0  0  0  0  0  0  0  0  0  0  0  0
    0.0290    0.0280    0.0000 N   0  0  0  0  0  0  0  0  0  0  0  0
    1.0062    0.2398    0.0000 N   0  0  0  0  0  0  0  0  0  0  0  0
    1.4094    1.1548    0.0000 C   0  0  0  0  0  0  0  0  0  0  0  0
  1  2  1  0
  2  3  2  0
  3  4  1  0
  4  5  1  0
  5  6  1  0
  4  7  2  0
  7  8  1  0
  8  9  1  0
  8  2  1  0
M  END

> <chembl_id>
CHEMBL4587219

> <chembl_pref_name>
None

$$$$

     RDKit          2D

 11 11  0  0  0  0  0  0  0  0999 V2000
    0.5496    0.6348    0.0000 N   0  0  0  0  0  0  0  0  0  0  0  0
   -0.7853    0.6348    0.0000 N   0  0  0  0  0  0  0  0  0  0  0  0
    1.2645   -1.4847    0.0000 N   0  0  0  0  0  0  0  0  0  0  0  0
   -1.5002   -1.4847    0.0000 N   0  0  0  0  0  0  0  0  0  0  0  0
    0.2947   -0.1499    0.0000 C   0  0  0  0  0  0  0  0  0  0  0  0
   -0.5303   -0.1499    0.0000 C   0  0  0  0  0  0  0  0  0  0  0  0
   -0.1178    1.1197    0.0000 C   0  0  0  0  0  0  0  0  0  0  0  0
    0.7796   -0.8173    0.0000 C   0  0  0  0  0  0  0  0  0  0  0  0
   -1.0153   -0.8173    0.0000 C   0  0  0  0  0  0  0  0  0  0  0  0
   -0.1178    1.9447    0.0000 C   0  0  0  0  0  0  0  0  0  0  0  0
   -0.8323    2.3572    0.0000 C   0  0  0  0  0  0  0  0  0  0  0  0
  1  5  1  0
  1  7  2  0
  2  6  1  0
  2  7  1  0
  3  8  3  0
  4  9  3  0
  5  6  2  0
  5  8  1  0
  6  9  1  0
  7 10  1  0
 10 11  1  0
M  END

> <chembl_id>
CHEMBL1379633

> <chembl_pref_name>
None

$$$$

     RDKit          2D

  6  6  0  0  0  0  0  0  0  0999 V2000
   -0.3926    0.9849    0.0000 C   0  0  0  0  0  0  0  0  0  0  0  0
   -1.2132    0.8987    0.0000 C   0  0  0  0  0  0  0  0  0  0  0  0
   -1.3847    0.0917    0.0000 C   0  0  0  0  0  0  0  0  0  0  0  0
   -0.6702   -0.3208    0.0000 N   0  0  0  0  0  0  0  0  0  0  0  0
   -0.0571    0.2312    0.0000 C   0  0  0  0  0  0  0  0  0  0  0  0
    0.7500    0.0596    0.0000 N   0  0  0  0  0  0  0  0  0  0  0  0
  1  2  1  0
  2  3  2  0
  3  4  1  0
  4  5  1  0
  1  5  2  0
  5  6  1  0
M  END

> <chembl_id>
CHEMBL4089706

> <chembl_pref_name>
None

$$$$

     RDKit          2D

 10 10  0  0  0  0  0  0  0  0999 V2000
    1.7806    2.9538    0.0000 C   0  0  0  0  0  0  0  0  0  0  0  0
    0.9136    2.4556    0.0000 N   0  0  0  0  0  0  0  0  0  0  0  0
    0.9116    1.4556    0.0000 C   0  0  0  0  0  0  0  0  0  0  0  0
    0.0444    0.9574    0.0000 C   0  0  0  0  0  0  0  0  0  0  0  0
    0.0424   -0.0426    0.0000 C   0  0  0  0  0  0  0  0  0  0  0  0
   -0.8246   -0.5408    0.0000 O   0  0  0  0  0  0  0  0  0  0  0  0
   -0.8266   -1.5408    0.0000 C   0  0  0  0  0  0  0  0  0  0  0  0
    0.9074   -0.5442    0.0000 C   0  0  0  0  0  0  0  0  0  0  0  0
    1.7746   -0.0460    0.0000 C   0  0  0  0  0  0  0  0  0  0  0  0
    1.7766    0.9540    0.0000 N   0  0  0  0  0  0  0  0  0  0  0  0
  1  2  1  0
  2  3  1  0
  3  4  2  0
  4  5  1  0
  5  6  1  0
  6  7  1  0
  5  8  2  0
  8  9  1  0
  9 10  2  0
 10  3  1  0
M  END

> <chembl_id>
CHEMBL4542299

> <chembl_pref_name>
None

$$$$

     RDKit          2D

 10 10  0  0  0  0  0  0  0  0999 V2000
    6.7064    2.8373    0.0000 C   0  0  0  0  0  0  0  0  0  0  0  0
    6.7052    2.0101    0.0000 C   0  0  0  0  0  0  0  0  0  0  0  0
    7.4201    1.5972    0.0000 C   0  0  0  0  0  0  0  0  0  0  0  0
    8.1364    2.0105    0.0000 C   0  0  0  0  0  0  0  0  0  0  0  0
    8.1335    2.8410    0.0000 C   0  0  0  0  0  0  0  0  0  0  0  0
    7.4183    3.2501    0.0000 C   0  0  0  0  0  0  0  0  0  0  0  0
    8.8465    3.2562    0.0000 C   0  0  0  0  0  0  0  0  0  0  0  0
    8.8515    1.5992    0.0000 C   0  0  0  0  0  0  0  0  0  0  0  0
    7.4199    0.7722    0.0000 C   0  0  0  0  0  0  0  0  0  0  0  0
    5.9905    1.5981    0.0000 C   0  0  0  0  0  0  0  0  0  0  0  0
  2  3  1  0
  5  6  2  0
  6  1  1  0
  1  2  2  0
  5  7  1  0
  3  4  2  0
  4  8  1  0
  3  9  1  0
  4  5  1  0
  2 10  1  0
M  END

> <chembl_id>
CHEMBL1797278

> <chembl_pref_name>
None

$$$$

     RDKit          2D

 10 11  0  0  0  0  0  0  0  0999 V2000
   -1.1703    0.9890    0.0000 C   0  0  0  0  0  0  0  0  0  0  0  0
   -0.7578    0.2745    0.0000 C   0  0  0  0  0  0  0  0  0  0  0  0
   -1.5828    0.2745    0.0000 C   0  0  0  0  0  0  0  0  0  0  0  0
   -0.0434   -0.1380    0.0000 C   0  0  0  0  0  0  0  0  0  0  0  0
    0.6711    0.2745    0.0000 C   0  0  0  0  0  0  0  0  0  0  0  0
    1.3856   -0.1380    0.0000 C   0  0  0  0  0  0  0  0  0  0  0  0
    1.3856   -0.9630    0.0000 C   0  0  0  0  0  0  0  0  0  0  0  0
    0.6711   -1.3755    0.0000 C   0  0  0  0  0  0  0  0  0  0  0  0
   -0.0434   -0.9630    0.0000 C   0  0  0  0  0  0  0  0  0  0  0  0
   -1.1703    1.8140    0.0000 N   0  0  0  0  0  0  0  0  0  0  0  0
  1  2  1  0
  1  3  1  0
  1 10  1  6
  2  3  1  0
  2  4  1  1
  4  5  2  0
  4  9  1  0
  5  6  1  0
  6  7  2  0
  7  8  1  0
  8  9  2  0
M  END

> <chembl_id>
CHEMBL257990

> <chembl_pref_name>
(+)-TRANYLCYPROMINE

$$$$

     RDKit          2D

  9  9  0  0  0  0  0  0  0  0999 V2000
    9.9619  -15.5272    0.0000 C   0  0  0  0  0  0  0  0  0  0  0  0
    9.9606  -16.3548    0.0000 C   0  0  0  0  0  0  0  0  0  0  0  0
   10.6736  -16.7677    0.0000 C   0  0  0  0  0  0  0  0  0  0  0  0
   11.3928  -16.3542    0.0000 C   0  0  0  0  0  0  0  0  0  0  0  0
   11.3897  -15.5233    0.0000 C   0  0  0  0  0  0  0  0  0  0  0  0
   10.6716  -15.1145    0.0000 C   0  0  0  0  0  0  0  0  0  0  0  0
   10.6677  -14.2896    0.0000 C   0  0  0  0  0  0  0  0  0  0  0  0
   11.3802  -13.8737    0.0000 N   0  0  0  0  0  0  0  0  0  0  0  0
    9.9514  -13.8804    0.0000 C   0  0  0  0  0  0  0  0  0  0  0  0
  4  5  1  0
  2  3  1  0
  5  6  2  0
  6  1  1  0
  1  2  2  0
  6  7  1  0
  3  4  2  0
  7  8  1  6
  7  9  1  0
M  END

> <chembl_id>
CHEMBL282700

> <chembl_pref_name>
None

$$$$

     RDKit          2D

 10 10  0  0  1  0  0  0  0  0999 V2000
    4.0500   -3.4292    0.0000 C   0  0  0  0  0  0  0  0  0  0  0  0
    3.9750   -4.2542    0.0000 N   0  0  0  0  0  0  0  0  0  0  0  0
    4.7542   -3.0042    0.0000 C   0  0  0  0  0  0  0  0  0  0  0  0
    2.7375   -3.7167    0.0000 N   0  0  0  0  0  0  0  0  0  0  0  0
    3.1625   -4.4375    0.0000 C   0  0  0  0  0  0  0  0  0  0  0  0
    3.2875   -3.1000    0.0000 C   0  0  0  0  0  0  0  0  0  0  0  0
    5.4750   -3.4125    0.0000 C   0  0  0  0  0  0  0  0  0  0  0  0
    5.4875   -4.2375    0.0000 N   0  0  0  0  0  0  0  0  0  0  0  0
    4.7417   -2.1792    0.0000 C   0  0  0  0  0  0  0  0  0  0  0  0
    6.1875   -2.9917    0.0000 C   0  0  0  0  0  0  0  0  0  0  0  0
  2  1  1  0
  3  1  1  0
  4  6  1  0
  5  2  2  0
  6  1  2  0
  7  3  1  0
  7  8  1  1
  3  9  1  1
 10  7  1  0
  4  5  1  0
M  END

> <chembl_id>
CHEMBL277341

> <chembl_pref_name>
None

$$$$

     RDKit          2D

 12 13  0  0  0  0  0  0  0  0999 V2000
    4.6917   -5.4667    0.0000 C   0  0  0  0  0  0  0  0  0  0  0  0
    6.8292   -5.0500    0.0000 N   0  0  0  0  0  0  0  0  0  0  0  0
    4.6875   -6.2917    0.0000 C   0  0  0  0  0  0  0  0  0  0  0  0
    5.4042   -5.0542    0.0000 C   0  0  0  0  0  0  0  0  0  0  0  0
    5.4042   -6.7042    0.0000 C   0  0  0  0  0  0  0  0  0  0  0  0
    6.1167   -5.4625    0.0000 C   0  0  0  0  0  0  0  0  0  0  0  0
    6.1167   -6.2875    0.0000 C   0  0  0  0  0  0  0  0  0  0  0  0
    3.9750   -5.0542    0.0000 C   0  0  0  0  0  0  0  0  0  0  0  0
    3.9750   -6.7125    0.0000 C   0  0  0  0  0  0  0  0  0  0  0  0
    3.2625   -5.4750    0.0000 C   0  0  0  0  0  0  0  0  0  0  0  0
    3.2625   -6.3000    0.0000 C   0  0  0  0  0  0  0  0  0  0  0  0
    6.3292   -4.6625    0.0000 H   0  0  0  0  0  0  0  0  0  0  0  0
  6  2  1  1
  3  1  1  0
  4  1  1  0
  5  3  1  0
  6  4  1  0
  7  6  1  0
  8  1  2  0
  9  3  2  0
 10  8  1  0
 11 10  2  0
  6 12  1  6
 11  9  1  0
  7  5  1  0
M  END

> <chembl_id>
CHEMBL1178569

> <chembl_pref_name>
None

$$$$

     RDKit          2D

 10 10  0  0  0  0  0  0  0  0999 V2000
    2.5956   -2.7031    0.0000 O   0  0  0  0  0  0  0  0  0  0  0  0
    2.5973   -1.5031    0.0000 C   0  0  0  0  0  0  0  0  0  0  0  0
    1.2990   -0.7500    0.0000 C   0  0  0  0  0  0  0  0  0  0  0  0
    1.2990    0.7500    0.0000 C   0  0  0  0  0  0  0  0  0  0  0  0
    0.0000    1.5000    0.0000 C   0  0  0  0  0  0  0  0  0  0  0  0
    0.0000    2.7000    0.0000 O   0  0  0  0  0  0  0  0  0  0  0  0
   -1.2990    0.7500    0.0000 C   0  0  0  0  0  0  0  0  0  0  0  0
   -1.2990   -0.7500    0.0000 C   0  0  0  0  0  0  0  0  0  0  0  0
    0.0000   -1.5000    0.0000 O   0  0  0  0  0  0  0  0  0  0  0  0
   -2.3383    1.3500    0.0000 O   0  0  0  0  0  0  0  0  0  0  0  0
  1  2  1  0
  2  3  1  0
  3  4  2  0
  4  5  1  0
  5  6  2  0
  5  7  1  0
  7  8  2  0
  8  9  1  0
  9  3  1  0
  7 10  1  0
M  END

> <chembl_id>
CHEMBL287556

> <chembl_pref_name>
KOJIC ACID

$$$$

     RDKit          2D

  9  9  0  0  0  0  0  0  0  0999 V2000
    5.6530    1.8696    0.0000 C   0  0  0  0  0  0  0  0  0  0  0  0
    5.6518    1.0428    0.0000 C   0  0  0  0  0  0  0  0  0  0  0  0
    6.3662    0.6302    0.0000 C   0  0  0  0  0  0  0  0  0  0  0  0
    7.0821    1.0433    0.0000 C   0  0  0  0  0  0  0  0  0  0  0  0
    7.0792    1.8732    0.0000 C   0  0  0  0  0  0  0  0  0  0  0  0
    6.3644    2.2820    0.0000 C   0  0  0  0  0  0  0  0  0  0  0  0
    6.3619    3.1064    0.0000 O   0  0  0  0  0  0  0  0  0  0  0  0
    7.7917    2.2881    0.0000 F   0  0  0  0  0  0  0  0  0  0  0  0
    4.9375    0.6312    0.0000 F   0  0  0  0  0  0  0  0  0  0  0  0
  4  5  1  0
  2  3  1  0
  5  6  2  0
  6  1  1  0
  1  2  2  0
  6  7  1  0
  3  4  2  0
  5  8  1  0
  2  9  1  0
M  END

> <chembl_id>
CHEMBL261219

> <chembl_pref_name>
None

$$$$

     RDKit          2D

 10 11  0  0  0  0  0  0  0  0999 V2000
   -0.5722    1.4224    0.0000 N   0  0  0  0  0  0  0  0  0  0  0  0
   -0.9082    0.4806    0.0000 C   0  0  0  0  0  0  0  0  0  0  0  0
   -0.0390   -0.0138    0.0000 C   0  0  0  0  0  0  0  0  0  0  0  0
   -0.0326   -1.0138    0.0000 C   0  0  0  0  0  0  0  0  0  0  0  0
    0.8366   -1.5082    0.0000 C   0  0  0  0  0  0  0  0  0  0  0  0
    1.6994   -1.0028    0.0000 C   0  0  0  0  0  0  0  0  0  0  0  0
    1.6930   -0.0028    0.0000 C   0  0  0  0  0  0  0  0  0  0  0  0
    0.8238    0.4916    0.0000 N   0  0  0  0  0  0  0  0  0  0  0  0
   -1.5460   -0.2896    0.0000 C   0  0  0  0  0  0  0  0  0  0  0  0
   -1.8940    0.6480    0.0000 C   0  0  0  0  0  0  0  0  0  0  0  0
  1  2  1  0
  2  3  1  0
  3  4  2  0
  4  5  1  0
  5  6  2  0
  6  7  1  0
  7  8  2  0
  2  9  1  0
  9 10  1  0
 10  2  1  0
  8  3  1  0
M  END

> <chembl_id>
CHEMBL4542870

> <chembl_pref_name>
None

$$$$

     RDKit          2D

  6  6  0  0  0  0  0  0  0  0999 V2000
   -0.5358   -0.0376    0.0000 S   0  0  0  0  0  0  0  0  0  0  0  0
    0.1316    0.4473    0.0000 C   0  0  0  0  0  0  0  0  0  0  0  0
    0.7990   -0.0376    0.0000 N   0  0  0  0  0  0  0  0  0  0  0  0
    0.5441   -0.8222    0.0000 C   0  0  0  0  0  0  0  0  0  0  0  0
   -0.2809   -0.8222    0.0000 C   0  0  0  0  0  0  0  0  0  0  0  0
    0.1316    1.2723    0.0000 N   0  0  0  0  0  0  0  0  0  0  0  0
  2  1  1  0
  5  1  1  0
  2  3  2  0
  2  6  1  0
  4  3  1  0
  4  5  2  0
M  END

> <chembl_id>
CHEMBL344760

> <chembl_pref_name>
AMINOTHIAZOLE

$$$$

     RDKit          2D

  9  9  0  0  0  0  0  0  0  0999 V2000
    1.4425   -1.0045    0.0000 O   0  0  0  0  0  0  0  0  0  0  0  0
    0.7280   -0.5920    0.0000 C   0  0  0  0  0  0  0  0  0  0  0  0
    0.0136   -1.0045    0.0000 C   0  0  0  0  0  0  0  0  0  0  0  0
   -0.7009   -0.5920    0.0000 C   0  0  0  0  0  0  0  0  0  0  0  0
   -0.7009    0.2330    0.0000 C   0  0  0  0  0  0  0  0  0  0  0  0
    0.0136    0.6455    0.0000 C   0  0  0  0  0  0  0  0  0  0  0  0
    0.7280    0.2330    0.0000 C   0  0  0  0  0  0  0  0  0  0  0  0
   -1.4154    0.6455    0.0000 C   0  0  0  0  0  0  0  0  0  0  0  0
    0.0136    1.4705    0.0000 C   0  0  0  0  0  0  0  0  0  0  0  0
  2  1  1  0
  2  3  2  0
  2  7  1  0
  3  4  1  0
  4  5  2  0
  5  6  1  0
  5  8  1  0
  6  7  2  0
  6  9  1  0
M  END

> <chembl_id>
CHEMBL192008

> <chembl_pref_name>
None

$$$$

     RDKit          2D

  9  9  0  0  0  0  0  0  0  0999 V2000
    1.0520   -2.8942    0.0000 C   0  0  0  0  0  0  0  0  0  0  0  0
    0.1850   -2.3960    0.0000 N   0  0  0  0  0  0  0  0  0  0  0  0
    0.1830   -1.3960    0.0000 C   0  0  0  0  0  0  0  0  0  0  0  0
   -0.6840   -0.8976    0.0000 C   0  0  0  0  0  0  0  0  0  0  0  0
   -0.6860    0.1022    0.0000 C   0  0  0  0  0  0  0  0  0  0  0  0
    0.1790    0.6040    0.0000 C   0  0  0  0  0  0  0  0  0  0  0  0
    0.1770    1.6040    0.0000 N   0  0  0  0  0  0  0  0  0  0  0  0
    1.0460    0.1058    0.0000 N   0  0  0  0  0  0  0  0  0  0  0  0
    1.0480   -0.8942    0.0000 C   0  0  0  0  0  0  0  0  0  0  0  0
  1  2  1  0
  2  3  1  0
  3  4  2  0
  4  5  1  0
  5  6  2  0
  6  7  1  0
  6  8  1  0
  8  9  2  0
  9  3  1  0
M  END

> <chembl_id>
CHEMBL4588361

> <chembl_pref_name>
None

$$$$

     RDKit          2D

  9  9  0  0  0  0  0  0  0  0999 V2000
    0.4691    1.3321    0.0000 O   0  0  0  0  0  0  0  0  0  0  0  0
   -0.2454    0.9196    0.0000 C   0  0  0  0  0  0  0  0  0  0  0  0
   -0.2454    0.0946    0.0000 C   0  0  0  0  0  0  0  0  0  0  0  0
    0.4691   -0.3179    0.0000 C   0  0  0  0  0  0  0  0  0  0  0  0
    0.4691   -1.1429    0.0000 C   0  0  0  0  0  0  0  0  0  0  0  0
   -0.2454   -1.5554    0.0000 C   0  0  0  0  0  0  0  0  0  0  0  0
   -0.9598   -1.1429    0.0000 C   0  0  0  0  0  0  0  0  0  0  0  0
   -0.9598   -0.3179    0.0000 C   0  0  0  0  0  0  0  0  0  0  0  0
    0.4691    2.1571    0.0000 N   0  0  0  0  0  0  0  0  0  0  0  0
  2  1  1  0
  2  3  1  0
  3  4  2  0
  3  8  1  0
  5  4  1  0
  6  5  2  0
  7  6  1  0
  8  7  2  0
  9  1  1  0
M  END

> <chembl_id>
CHEMBL443652

> <chembl_pref_name>
None

$$$$

     RDKit          2D

 10 10  0  0  0  0  0  0  0  0999 V2000
    0.8846    1.1734    0.0000 O   0  0  0  0  0  0  0  0  0  0  0  0
    0.8846    0.3484    0.0000 C   0  0  0  0  0  0  0  0  0  0  0  0
    1.5991   -0.0641    0.0000 O   0  0  0  0  0  0  0  0  0  0  0  0
    0.1701   -0.0641    0.0000 C   0  0  0  0  0  0  0  0  0  0  0  0
    0.1701   -0.8891    0.0000 C   0  0  0  0  0  0  0  0  0  0  0  0
   -0.5443   -1.3016    0.0000 C   0  0  0  0  0  0  0  0  0  0  0  0
   -1.2588   -0.8891    0.0000 C   0  0  0  0  0  0  0  0  0  0  0  0
   -1.2588   -0.0641    0.0000 N   0  0  0  0  0  0  0  0  0  0  0  0
   -0.5443    0.3484    0.0000 C   0  0  0  0  0  0  0  0  0  0  0  0
   -0.5443    1.1734    0.0000 O   0  0  0  0  0  0  0  0  0  0  0  0
  2  1  2  0
  2  3  1  0
  2  4  1  0
  4  5  2  0
  4  9  1  0
  5  6  1  0
  6  7  2  0
  7  8  1  0
  9  8  1  0
  9 10  2  0
M  END

> <chembl_id>
CHEMBL53297

> <chembl_pref_name>
None

$$$$

     RDKit          2D

 11 11  0  0  0  0  0  0  0  0999 V2000
   16.4638  -12.0926    0.0000 C   0  0  0  0  0  0  0  0  0  0  0  0
   15.7494  -11.6801    0.0000 C   0  0  0  0  0  0  0  0  0  0  0  0
   15.7543  -10.8540    0.0000 C   0  0  0  0  0  0  0  0  0  0  0  0
   15.0405  -10.4415    0.0000 C   0  0  0  0  0  0  0  0  0  0  0  0
   14.3251  -10.8541    0.0000 C   0  0  0  0  0  0  0  0  0  0  0  0
   14.3278  -11.6834    0.0000 C   0  0  0  0  0  0  0  0  0  0  0  0
   15.0420  -12.0921    0.0000 C   0  0  0  0  0  0  0  0  0  0  0  0
   17.1722  -11.6801    0.0000 N   0  0  0  0  0  0  0  0  0  0  0  0
   13.6146  -12.0985    0.0000 C   0  0  0  0  0  0  0  0  0  0  0  0
   12.8988  -11.6885    0.0000 N   0  0  0  0  0  0  0  0  0  0  0  0
   13.6175  -12.9235    0.0000 N   0  0  0  0  0  0  0  0  0  0  0  0
  1  8  1  0
  1  2  1  0
  2  3  2  0
  3  4  1  0
  4  5  2  0
  5  6  1  0
  6  7  2  0
  7  2  1  0
  6  9  1  0
  9 10  2  0
  9 11  1  0
M  END

> <chembl_id>
CHEMBL4098510

> <chembl_pref_name>
None

$$$$

     RDKit          2D

  9  9  0  0  0  0  0  0  0  0999 V2000
    3.1697  -14.6145    0.0000 C   0  0  0  0  0  0  0  0  0  0  0  0
    3.9869  -14.6145    0.0000 C   0  0  0  0  0  0  0  0  0  0  0  0
    4.2412  -13.8378    0.0000 C   0  0  0  0  0  0  0  0  0  0  0  0
    3.5783  -13.3557    0.0000 S   0  0  0  0  0  0  0  0  0  0  0  0
    2.9195  -13.8378    0.0000 C   0  0  0  0  0  0  0  0  0  0  0  0
    4.9444  -13.4217    0.0000 C   0  0  0  0  0  0  0  0  0  0  0  0
    5.6565  -13.8227    0.0000 O   0  0  0  0  0  0  0  0  0  0  0  0
    4.9357  -12.6046    0.0000 O   0  0  0  0  0  0  0  0  0  0  0  0
    4.4664  -15.2762    0.0000 F   0  0  0  0  0  0  0  0  0  0  0  0
  1  2  1  0
  2  3  2  0
  3  4  1  0
  4  5  1  0
  5  1  2  0
  3  6  1  0
  6  7  1  0
  6  8  2  0
  2  9  1  0
M  END

> <chembl_id>
CHEMBL4277294

> <chembl_pref_name>
None

$$$$

     RDKit          2D

  8  8  0  0  0  0  0  0  0  0999 V2000
    4.5475   -2.1700    0.0000 C   0  0  0  0  0  0  0  0  0  0  0  0
    4.3081   -1.3805    0.0000 C   0  0  0  0  0  0  0  0  0  0  0  0
    3.4832   -1.3611    0.0000 C   0  0  0  0  0  0  0  0  0  0  0  0
    3.2105   -2.1425    0.0000 N   0  0  0  0  0  0  0  0  0  0  0  0
    3.8686   -2.6386    0.0000 O   0  0  0  0  0  0  0  0  0  0  0  0
    5.3722   -2.1892    0.0000 C   0  0  0  0  0  0  0  0  0  0  0  0
    5.7680   -2.9131    0.0000 N   0  0  0  0  0  0  0  0  0  0  0  0
    3.0135   -0.6829    0.0000 O   0  0  0  0  0  0  0  0  0  0  0  0
  1  2  2  0
  2  3  1  0
  3  4  2  0
  4  5  1  0
  5  1  1  0
  1  6  1  0
  6  7  1  0
  3  8  1  0
M  END

> <chembl_id>
CHEMBL273481

> <chembl_pref_name>
MUSCIMOL

$$$$

     RDKit          2D

 10 10  0  0  0  0  0  0  0  0999 V2000
   -1.7492    1.7744    0.0000 O   0  0  0  0  0  0  0  0  0  0  0  0
   -2.4637    0.5369    0.0000 O   0  0  0  0  0  0  0  0  0  0  0  0
   -0.3202   -0.7006    0.0000 N   0  0  0  0  0  0  0  0  0  0  0  0
   -1.0347    0.5369    0.0000 C   0  0  0  0  0  0  0  0  0  0  0  0
   -0.3202    0.9494    0.0000 C   0  0  0  0  0  0  0  0  0  0  0  0
   -1.7492    0.9494    0.0000 C   0  0  0  0  0  0  0  0  0  0  0  0
   -1.0347   -0.2881    0.0000 C   0  0  0  0  0  0  0  0  0  0  0  0
    0.3942    0.5369    0.0000 C   0  0  0  0  0  0  0  0  0  0  0  0
    0.3942   -0.2881    0.0000 C   0  0  0  0  0  0  0  0  0  0  0  0
   -0.3202    1.7744    0.0000 C   0  0  0  0  0  0  0  0  0  0  0  0
  1  6  2  0
  2  6  1  0
  3  7  1  0
  3  9  2  0
  4  5  1  0
  4  6  1  0
  4  7  2  0
  5  8  2  0
  5 10  1  0
  8  9  1  0
M  END

> <chembl_id>
CHEMBL1551493

> <chembl_pref_name>
None

$$$$

     RDKit          2D

 11 12  0  0  0  0  0  0  0  0999 V2000
   16.4361   -6.9649    0.0000 C   0  0  0  0  0  0  0  0  0  0  0  0
   17.8632   -6.1329    0.0000 C   0  0  0  0  0  0  0  0  0  0  0  0
   19.3019   -6.9789    0.0000 C   0  0  0  0  0  0  0  0  0  0  0  0
   20.1254   -6.9851    0.0000 C   0  0  0  0  0  0  0  0  0  0  0  0
   16.4367   -6.1364    0.0000 C   0  0  0  0  0  0  0  0  0  0  0  0
   17.1532   -8.2031    0.0000 C   0  0  0  0  0  0  0  0  0  0  0  0
   19.7184   -6.2675    0.0000 C   0  0  0  0  0  0  0  0  0  0  0  0
   17.1506   -5.7204    0.0000 C   0  0  0  0  0  0  0  0  0  0  0  0
   17.8640   -6.9623    0.0000 C   0  0  0  0  0  0  0  0  0  0  0  0
   17.1542   -7.3747    0.0000 N   0  0  0  0  0  0  0  0  0  0  0  0
   18.5842   -7.3858    0.0000 N   0  0  0  0  0  0  0  0  0  0  0  0
  9 11  2  0
  3  7  1  0
  5  8  1  0
  4  3  1  0
  8  2  2  0
 11  3  1  0
 10  6  1  0
 10  1  1  0
  2  9  1  0
  1  5  2  0
  7  4  1  0
 10  9  1  0
M  END

> <chembl_id>
CHEMBL3304157

> <chembl_pref_name>
None

$$$$

     RDKit          2D

  9  9  0  0  0  0  0  0  0  0999 V2000
    2.9417   -4.7292    0.0000 N   0  0  0  0  0  0  0  0  0  0  0  0
    2.2292   -4.3167    0.0000 C   0  0  0  0  0  0  0  0  0  0  0  0
    3.6625   -4.3167    0.0000 C   0  0  0  0  0  0  0  0  0  0  0  0
    2.2292   -3.4875    0.0000 C   0  0  0  0  0  0  0  0  0  0  0  0
    3.6625   -3.4875    0.0000 C   0  0  0  0  0  0  0  0  0  0  0  0
    2.9417   -3.0750    0.0000 C   0  0  0  0  0  0  0  0  0  0  0  0
    1.5167   -4.7292    0.0000 F   0  0  0  0  0  0  0  0  0  0  0  0
    4.3792   -4.7292    0.0000 F   0  0  0  0  0  0  0  0  0  0  0  0
    2.9417   -2.2500    0.0000 N   0  0  0  0  0  0  0  0  0  0  0  0
  2  1  1  0
  3  1  2  0
  4  2  2  0
  5  3  1  0
  6  5  2  0
  7  2  1  0
  8  3  1  0
  9  6  1  0
  6  4  1  0
M  END

> <chembl_id>
CHEMBL117189

> <chembl_pref_name>
None

$$$$

     RDKit          2D

 10 10  0  0  0  0  0  0  0  0999 V2000
    8.6177   -2.6249    0.0000 C   0  0  0  0  0  0  0  0  0  0  0  0
    8.6177   -3.4421    0.0000 C   0  0  0  0  0  0  0  0  0  0  0  0
    9.3229   -3.8466    0.0000 O   0  0  0  0  0  0  0  0  0  0  0  0
   10.0282   -3.4421    0.0000 C   0  0  0  0  0  0  0  0  0  0  0  0
   10.0282   -2.6249    0.0000 C   0  0  0  0  0  0  0  0  0  0  0  0
    9.3229   -2.2122    0.0000 C   0  0  0  0  0  0  0  0  0  0  0  0
    9.3229   -1.3950    0.0000 C   0  0  0  0  0  0  0  0  0  0  0  0
   10.7353   -3.8517    0.0000 O   0  0  0  0  0  0  0  0  0  0  0  0
    7.9105   -3.8517    0.0000 C   0  0  0  0  0  0  0  0  0  0  0  0
    7.2022   -3.4442    0.0000 C   0  0  0  0  0  0  0  0  0  0  0  0
  1  2  2  0
  1  6  1  0
  2  3  1  0
  3  4  1  0
  4  5  1  0
  5  6  2  0
  6  7  1  0
  4  8  2  0
  2  9  1  0
  9 10  1  0
M  END

> <chembl_id>
CHEMBL2252916

> <chembl_pref_name>
None

$$$$

     RDKit          2D

 10 10  0  0  0  0  0  0  0  0999 V2000
   -0.3342    1.8975    0.0000 C   0  0  0  0  0  0  0  0  0  0  0  0
   -0.3342    1.0725    0.0000 C   0  0  0  0  0  0  0  0  0  0  0  0
    0.3802    0.6600    0.0000 C   0  0  0  0  0  0  0  0  0  0  0  0
    0.3802   -0.1650    0.0000 C   0  0  0  0  0  0  0  0  0  0  0  0
    1.0947   -0.5775    0.0000 C   0  0  0  0  0  0  0  0  0  0  0  0
    1.0947   -1.4025    0.0000 C   0  0  0  0  0  0  0  0  0  0  0  0
    0.3802   -1.8150    0.0000 C   0  0  0  0  0  0  0  0  0  0  0  0
   -0.3342   -1.4025    0.0000 C   0  0  0  0  0  0  0  0  0  0  0  0
   -0.3342   -0.5775    0.0000 C   0  0  0  0  0  0  0  0  0  0  0  0
   -1.0487    2.3100    0.0000 N   0  0  0  0  0  0  0  0  0  0  0  0
  1  2  1  0
  1 10  1  0
  2  3  1  0
  4  3  1  0
  4  5  2  0
  4  9  1  0
  5  6  1  0
  6  7  2  0
  7  8  1  0
  8  9  2  0
M  END

> <chembl_id>
CHEMBL276864

> <chembl_pref_name>
None

$$$$

     RDKit          2D

  6  6  0  0  0  0  0  0  0  0999 V2000
    0.4250   -0.1250    0.0000 C   0  0  0  0  0  0  0  0  0  0  0  0
   -0.2333   -0.6250    0.0000 C   0  0  0  0  0  0  0  0  0  0  0  0
    0.1500    0.6500    0.0000 S   0  0  0  0  0  0  0  0  0  0  0  0
   -0.6708    0.6375    0.0000 S   0  0  0  0  0  0  0  0  0  0  0  0
   -0.9125   -0.1500    0.0000 C   0  0  0  0  0  0  0  0  0  0  0  0
    1.2250   -0.3667    0.0000 S   0  0  0  0  0  0  0  0  0  0  0  0
  2  1  1  0
  3  1  1  0
  4  3  1  0
  5  2  2  0
  6  1  2  0
  4  5  1  0
M  END

> <chembl_id>
CHEMBL368700

> <chembl_pref_name>
DITHIOLETHIONE

$$$$

     RDKit          2D

  9 10  0  0  0  0  0  0  0  0999 V2000
   -0.1000    0.2625    0.0000 C   0  0  0  0  0  0  0  0  0  0  0  0
    0.6917    0.4750    0.0000 C   0  0  0  0  0  0  0  0  0  0  0  0
    0.6167   -0.8542    0.0000 N   0  0  0  0  0  0  0  0  0  0  0  0
    1.1417   -0.2167    0.0000 O   0  0  0  0  0  0  0  0  0  0  0  0
   -0.1500   -0.5625    0.0000 C   0  0  0  0  0  0  0  0  0  0  0  0
    0.9875    1.2458    0.0000 N   0  0  0  0  0  0  0  0  0  0  0  0
   -0.8833    0.5583    0.0000 C   0  0  0  0  0  0  0  0  0  0  0  0
   -0.9458   -0.7792    0.0000 C   0  0  0  0  0  0  0  0  0  0  0  0
   -1.3958   -0.0917    0.0000 C   0  0  0  0  0  0  0  0  0  0  0  0
  2  1  2  0
  3  5  2  0
  4  2  1  0
  5  1  1  0
  6  2  1  0
  7  1  1  0
  8  5  1  0
  9  7  1  0
  9  8  1  0
  4  3  1  0
M  END

> <chembl_id>
CHEMBL369077

> <chembl_pref_name>
None

$$$$

     RDKit          2D

 10 10  0  0  0  0  0  0  0  0999 V2000
   -3.1774    1.4299    0.0000 C   0  0  0  0  0  0  0  0  0  0  0  0
   -2.5184    0.9335    0.0000 O   0  0  0  0  0  0  0  0  0  0  0  0
   -1.8415    1.4054    0.0000 C   0  0  0  0  0  0  0  0  0  0  0  0
   -2.0834    2.1969    0.0000 C   0  0  0  0  0  0  0  0  0  0  0  0
   -2.9074    2.2082    0.0000 C   0  0  0  0  0  0  0  0  0  0  0  0
   -1.0617    1.1359    0.0000 C   0  0  0  0  0  0  0  0  0  0  0  0
   -0.4384    1.6764    0.0000 C   0  0  0  0  0  0  0  0  0  0  0  0
    0.3414    1.4069    0.0000 N   0  0  0  0  0  0  0  0  0  0  0  0
    0.9690    1.9492    0.0000 O   0  0  0  0  0  0  0  0  0  0  0  0
    0.5022    0.5984    0.0000 O   0  0  0  0  0  0  0  0  0  0  0  0
  5  1  2  0
  1  2  1  0
  3  6  1  0
  6  7  2  0
  2  3  1  0
  7  8  1  0
  3  4  2  0
  4  5  1  0
  8  9  2  0
  8 10  1  0
M  CHG  2   8   1  10  -1
M  END

> <chembl_id>
CHEMBL390815

> <chembl_pref_name>
None

$$$$

     RDKit          2D

  9  9  0  0  0  0  0  0  0  0999 V2000
    3.0801   -2.2547    0.0000 N   0  0  0  0  0  0  0  0  0  0  0  0
    2.3657   -1.8422    0.0000 C   0  0  0  0  0  0  0  0  0  0  0  0
    1.6512   -0.6047    0.0000 C   0  0  0  0  0  0  0  0  0  0  0  0
    0.9367   -1.8422    0.0000 C   0  0  0  0  0  0  0  0  0  0  0  0
    1.6512   -2.2547    0.0000 C   0  0  0  0  0  0  0  0  0  0  0  0
    2.3657   -1.0172    0.0000 C   0  0  0  0  0  0  0  0  0  0  0  0
    0.9367   -1.0172    0.0000 C   0  0  0  0  0  0  0  0  0  0  0  0
    1.6512    0.2203    0.0000 C   0  0  0  0  0  0  0  0  0  0  0  0
    0.2222   -2.2547    0.0000 C   0  0  0  0  0  0  0  0  0  0  0  0
  1  2  1  0
  2  5  2  0
  2  6  1  0
  3  6  2  0
  3  7  1  0
  3  8  1  0
  4  5  1  0
  4  7  2  0
  4  9  1  0
M  END

> <chembl_id>
CHEMBL1603782

> <chembl_pref_name>
None

$$$$

     RDKit          2D

  9  9  0  0  0  0  0  0  0  0999 V2000
   28.2577  -24.2392    0.0000 C   0  0  0  0  0  0  0  0  0  0  0  0
   28.2577  -25.0575    0.0000 C   0  0  0  0  0  0  0  0  0  0  0  0
   28.9652  -25.4649    0.0000 C   0  0  0  0  0  0  0  0  0  0  0  0
   29.6732  -25.0551    0.0000 C   0  0  0  0  0  0  0  0  0  0  0  0
   29.6693  -24.2337    0.0000 C   0  0  0  0  0  0  0  0  0  0  0  0
   28.9612  -23.8300    0.0000 C   0  0  0  0  0  0  0  0  0  0  0  0
   30.3749  -23.8215    0.0000 O   0  0  0  0  0  0  0  0  0  0  0  0
   27.5502  -25.4665    0.0000 Cl  0  0  0  0  0  0  0  0  0  0  0  0
   27.5494  -23.8317    0.0000 N   0  0  0  0  0  0  0  0  0  0  0  0
  1  2  2  0
  2  3  1  0
  3  4  2  0
  4  5  1  0
  5  6  2  0
  6  1  1  0
  5  7  1  0
  2  8  1  0
  1  9  1  0
M  END

> <chembl_id>
CHEMBL2333959

> <chembl_pref_name>
None

$$$$

     RDKit          2D

  9  9  0  0  0  0  0  0  0  0999 V2000
    7.1166  -23.5917    0.0000 N   0  0  0  0  0  0  0  0  0  0  0  0
    7.9416  -23.5917    0.0000 C   0  0  0  0  0  0  0  0  0  0  0  0
    8.1984  -22.8076    0.0000 N   0  0  0  0  0  0  0  0  0  0  0  0
    7.5291  -22.3208    0.0000 C   0  0  0  0  0  0  0  0  0  0  0  0
    6.8641  -22.8076    0.0000 C   0  0  0  0  0  0  0  0  0  0  0  0
    7.5279  -21.4958    0.0000 Cl  0  0  0  0  0  0  0  0  0  0  0  0
    8.9834  -22.5537    0.0000 C   0  0  0  0  0  0  0  0  0  0  0  0
    8.4258  -24.2597    0.0000 C   0  0  0  0  0  0  0  0  0  0  0  0
    9.2464  -24.1744    0.0000 O   0  0  0  0  0  0  0  0  0  0  0  0
  4  5  2  0
  5  1  1  0
  1  2  2  0
  4  6  1  0
  3  7  1  0
  2  3  1  0
  2  8  1  0
  3  4  1  0
  8  9  1  0
M  END

> <chembl_id>
CHEMBL2071161

> <chembl_pref_name>
None

$$$$

     RDKit          2D

  8  8  0  0  0  0  0  0  0  0999 V2000
    0.9500   -3.1917    0.0000 N   0  0  0  0  0  0  0  0  0  0  0  0
    1.4667   -3.4917    0.0000 C   0  0  0  0  0  0  0  0  0  0  0  0
    0.4292   -3.5000    0.0000 C   0  0  0  0  0  0  0  0  0  0  0  0
    1.9875   -3.1917    0.0000 C   0  0  0  0  0  0  0  0  0  0  0  0
    1.4667   -4.1000    0.0000 C   0  0  0  0  0  0  0  0  0  0  0  0
    2.5042   -3.4875    0.0000 C   0  0  0  0  0  0  0  0  0  0  0  0
    0.4292   -4.1000    0.0000 C   0  0  0  0  0  0  0  0  0  0  0  0
    0.9500   -4.4000    0.0000 C   0  0  0  0  0  0  0  0  0  0  0  0
  2  1  2  0
  3  1  1  0
  4  2  1  0
  5  2  1  0
  6  4  1  0
  7  3  2  0
  8  7  1  0
  5  8  2  0
M  END

> <chembl_id>
CHEMBL279305

> <chembl_pref_name>
None

$$$$

     RDKit          2D

 10 10  0  0  0  0  0  0  0  0999 V2000
    2.4906   -0.3818    0.0000 C   0  0  0  0  0  0  0  0  0  0  0  0
    1.6228    0.1150    0.0000 C   0  0  0  0  0  0  0  0  0  0  0  0
    1.6192    1.1150    0.0000 C   0  0  0  0  0  0  0  0  0  0  0  0
    0.7514    1.6120    0.0000 C   0  0  0  0  0  0  0  0  0  0  0  0
   -0.1128    1.1088    0.0000 N   0  0  0  0  0  0  0  0  0  0  0  0
   -0.1092    0.1088    0.0000 C   0  0  0  0  0  0  0  0  0  0  0  0
   -0.9734   -0.3942    0.0000 C   0  0  0  0  0  0  0  0  0  0  0  0
   -1.8412    0.1026    0.0000 C   0  0  0  0  0  0  0  0  0  0  0  0
   -2.7054   -0.4004    0.0000 O   0  0  0  0  0  0  0  0  0  0  0  0
    0.7586   -0.3880    0.0000 N   0  0  0  0  0  0  0  0  0  0  0  0
  1  2  1  0
  2  3  2  0
  3  4  1  0
  4  5  2  0
  5  6  1  0
  6  7  1  0
  7  8  1  0
  8  9  1  0
  6 10  2  0
 10  2  1  0
M  END

> <chembl_id>
CHEMBL4515192

> <chembl_pref_name>
None

$$$$

     RDKit          2D

 11 11  0  0  0  0  0  0  0  0999 V2000
    9.2375   -9.9493    0.0000 C   0  0  0  0  0  0  0  0  0  0  0  0
    9.2362  -10.7769    0.0000 C   0  0  0  0  0  0  0  0  0  0  0  0
    9.9491  -11.1897    0.0000 C   0  0  0  0  0  0  0  0  0  0  0  0
   10.6683  -10.7763    0.0000 C   0  0  0  0  0  0  0  0  0  0  0  0
   10.6651   -9.9454    0.0000 C   0  0  0  0  0  0  0  0  0  0  0  0
    9.9471   -9.5365    0.0000 C   0  0  0  0  0  0  0  0  0  0  0  0
   11.3775   -9.5293    0.0000 C   0  0  0  0  0  0  0  0  0  0  0  0
   12.0940   -9.9382    0.0000 C   0  0  0  0  0  0  0  0  0  0  0  0
   12.8063   -9.5222    0.0000 N   0  0  0  0  0  0  0  0  0  0  0  0
   11.3831  -11.1881    0.0000 C   0  0  0  0  0  0  0  0  0  0  0  0
    8.5227   -9.5374    0.0000 C   0  0  0  0  0  0  0  0  0  0  0  0
  5  6  2  0
  6  1  1  0
  1  2  2  0
  5  7  1  0
  3  4  2  0
  7  8  1  0
  8  9  1  0
  4  5  1  0
  4 10  1  0
  2  3  1  0
  1 11  1  0
M  END

> <chembl_id>
CHEMBL509695

> <chembl_pref_name>
None

$$$$

     RDKit          2D

  9  9  0  0  0  0  0  0  0  0999 V2000
   -2.9759  -12.5651    0.0000 N   0  0  0  0  0  0  0  0  0  0  0  0
   -2.1654  -12.7053    0.0000 N   0  0  0  0  0  0  0  0  0  0  0  0
   -1.7822  -11.9864    0.0000 C   0  0  0  0  0  0  0  0  0  0  0  0
   -2.3568  -11.3855    0.0000 O   0  0  0  0  0  0  0  0  0  0  0  0
   -3.0983  -11.7514    0.0000 C   0  0  0  0  0  0  0  0  0  0  0  0
   -3.8125  -11.3363    0.0000 C   0  0  0  0  0  0  0  0  0  0  0  0
   -4.5282  -11.7467    0.0000 C   0  0  0  0  0  0  0  0  0  0  0  0
   -5.2415  -11.3321    0.0000 N   0  0  0  0  0  0  0  0  0  0  0  0
   -0.9649  -11.8741    0.0000 S   0  0  0  0  0  0  0  0  0  0  0  0
  5  1  2  0
  1  2  1  0
  5  6  1  0
  6  7  1  0
  7  8  1  0
  2  3  2  0
  3  9  1  0
  3  4  1  0
  4  5  1  0
M  END

> <chembl_id>
CHEMBL1186276

> <chembl_pref_name>
None

$$$$

     RDKit          2D

  9  9  0  0  0  0  0  0  0  0999 V2000
    0.0000    1.6500    0.0000 Cl  0  0  0  0  0  0  0  0  0  0  0  0
    0.7145    0.4125    0.0000 N   0  0  0  0  0  0  0  0  0  0  0  0
    0.0000   -0.8250    0.0000 N   0  0  0  0  0  0  0  0  0  0  0  0
    1.4289   -0.8250    0.0000 N   0  0  0  0  0  0  0  0  0  0  0  0
    0.7145   -0.4125    0.0000 C   0  0  0  0  0  0  0  0  0  0  0  0
    0.0000    0.8250    0.0000 C   0  0  0  0  0  0  0  0  0  0  0  0
   -0.7145   -0.4125    0.0000 C   0  0  0  0  0  0  0  0  0  0  0  0
   -0.7145    0.4125    0.0000 C   0  0  0  0  0  0  0  0  0  0  0  0
   -1.4289   -0.8250    0.0000 C   0  0  0  0  0  0  0  0  0  0  0  0
  1  6  1  0
  2  5  1  0
  2  6  2  0
  3  5  2  0
  3  7  1  0
  4  5  1  0
  6  8  1  0
  7  8  2  0
  7  9  1  0
M  END

> <chembl_id>
CHEMBL1723906

> <chembl_pref_name>
None

$$$$

     RDKit          2D

 10 10  0  0  0  0  0  0  0  0999 V2000
    5.3125   -2.4250    0.0000 N   0  0  0  0  0  0  0  0  0  0  0  0
    5.3125   -3.0250    0.0000 N   0  0  0  0  0  0  0  0  0  0  0  0
    4.8000   -3.3250    0.0000 C   0  0  0  0  0  0  0  0  0  0  0  0
    5.8292   -2.1167    0.0000 O   0  0  0  0  0  0  0  0  0  0  0  0
    3.7667   -3.9167    0.0000 N   0  0  0  0  0  0  0  0  0  0  0  0
    4.2792   -3.0250    0.0000 C   0  0  0  0  0  0  0  0  0  0  0  0
    4.8000   -3.9167    0.0000 C   0  0  0  0  0  0  0  0  0  0  0  0
    4.2875   -4.2167    0.0000 C   0  0  0  0  0  0  0  0  0  0  0  0
    3.7625   -3.3250    0.0000 C   0  0  0  0  0  0  0  0  0  0  0  0
    5.8292   -3.3250    0.0000 C   0  0  0  0  0  0  0  0  0  0  0  0
  2  1  1  0
  3  2  1  0
  4  1  2  0
  5  8  1  0
  6  3  2  0
  7  3  1  0
  8  7  2  0
  9  6  1  0
 10  2  1  0
  9  5  2  0
M  END

> <chembl_id>
CHEMBL166205

> <chembl_pref_name>
None

$$$$

     RDKit          2D

  9  9  0  0  0  0  0  0  0  0999 V2000
    8.0859    2.8277    0.0000 C   0  0  0  0  0  0  0  0  0  0  0  0
    8.0848    2.0007    0.0000 C   0  0  0  0  0  0  0  0  0  0  0  0
    8.7993    1.5882    0.0000 C   0  0  0  0  0  0  0  0  0  0  0  0
    9.5153    2.0012    0.0000 C   0  0  0  0  0  0  0  0  0  0  0  0
    9.5125    2.8313    0.0000 C   0  0  0  0  0  0  0  0  0  0  0  0
    8.7975    3.2403    0.0000 C   0  0  0  0  0  0  0  0  0  0  0  0
   10.2250    3.2463    0.0000 C   0  0  0  0  0  0  0  0  0  0  0  0
   10.9406    2.8367    0.0000 O   0  0  0  0  0  0  0  0  0  0  0  0
    7.3704    1.5891    0.0000 Cl  0  0  0  0  0  0  0  0  0  0  0  0
  4  5  1  0
  2  3  1  0
  5  6  2  0
  6  1  1  0
  1  2  2  0
  5  7  1  0
  3  4  2  0
  7  8  1  0
  2  9  1  0
M  END

> <chembl_id>
CHEMBL1224554

> <chembl_pref_name>
None

$$$$

     RDKit          2D

  9  9  0  0  0  0  0  0  0  0999 V2000
    1.2820   -0.7295    0.0000 N   0  0  0  0  0  0  0  0  0  0  0  0
   -0.1470   -1.5545    0.0000 O   0  0  0  0  0  0  0  0  0  0  0  0
    0.5675   -0.3170    0.0000 C   0  0  0  0  0  0  0  0  0  0  0  0
   -0.1470   -0.7295    0.0000 C   0  0  0  0  0  0  0  0  0  0  0  0
   -0.8615   -0.3170    0.0000 C   0  0  0  0  0  0  0  0  0  0  0  0
   -0.8615    0.5080    0.0000 C   0  0  0  0  0  0  0  0  0  0  0  0
   -0.1470    0.9205    0.0000 C   0  0  0  0  0  0  0  0  0  0  0  0
    0.5675    0.5080    0.0000 C   0  0  0  0  0  0  0  0  0  0  0  0
   -0.1470    1.7455    0.0000 C   0  0  0  0  0  0  0  0  0  0  0  0
  3  1  1  0
  4  2  1  0
  3  4  2  0
  3  8  1  0
  4  5  1  0
  5  6  2  0
  6  7  1  0
  7  8  2  0
  7  9  1  0
M  END

> <chembl_id>
CHEMBL224282

> <chembl_pref_name>
None

$$$$

     RDKit          2D

  9  9  0  0  0  0  0  0  0  0999 V2000
    6.8667    0.8125    0.0000 C   0  0  0  0  0  0  0  0  0  0  0  0
    6.1917    0.3333    0.0000 N   0  0  0  0  0  0  0  0  0  0  0  0
    5.7917    1.5958    0.0000 N   0  0  0  0  0  0  0  0  0  0  0  0
    5.5375    0.8125    0.0000 C   0  0  0  0  0  0  0  0  0  0  0  0
    6.6125    1.5958    0.0000 C   0  0  0  0  0  0  0  0  0  0  0  0
    7.6542    0.5583    0.0000 C   0  0  0  0  0  0  0  0  0  0  0  0
    7.8292   -0.2417    0.0000 N   0  0  0  0  0  0  0  0  0  0  0  0
    8.6167   -0.5000    0.0000 O   0  0  0  0  0  0  0  0  0  0  0  0
    6.1792   -0.4917    0.0000 C   0  0  0  0  0  0  0  0  0  0  0  0
  2  1  1  0
  3  5  1  0
  4  2  1  0
  5  1  2  0
  6  1  1  0
  7  6  2  0
  8  7  1  0
  9  2  1  0
  4  3  2  0
M  END

> <chembl_id>
CHEMBL189592

> <chembl_pref_name>
None

$$$$

     RDKit          2D

 10 10  0  0  0  0  0  0  0  0999 V2000
   -0.2401   -0.2004    0.0000 C   0  0  0  0  0  0  0  0  0  0  0  0
    0.4744    0.2121    0.0000 C   0  0  0  0  0  0  0  0  0  0  0  0
   -0.2401   -1.0254    0.0000 C   0  0  0  0  0  0  0  0  0  0  0  0
   -0.9545    0.2121    0.0000 C   0  0  0  0  0  0  0  0  0  0  0  0
    1.1889   -0.2004    0.0000 C   0  0  0  0  0  0  0  0  0  0  0  0
    0.4744    1.0371    0.0000 O   0  0  0  0  0  0  0  0  0  0  0  0
    0.4744   -1.4379    0.0000 C   0  0  0  0  0  0  0  0  0  0  0  0
    1.1889   -1.0254    0.0000 C   0  0  0  0  0  0  0  0  0  0  0  0
   -0.9545    1.0371    0.0000 C   0  0  0  0  0  0  0  0  0  0  0  0
   -1.6690    1.4496    0.0000 C   0  0  0  0  0  0  0  0  0  0  0  0
  1  2  2  0
  1  3  1  0
  1  4  1  0
  2  5  1  0
  2  6  1  0
  3  7  2  0
  9  4  1  0
  5  8  2  0
  7  8  1  0
  9 10  2  0
M  END

> <chembl_id>
CHEMBL1229950

> <chembl_pref_name>
2-ALLYLPHENOL

$$$$

     RDKit          2D

  9  9  0  0  0  0  0  0  0  0999 V2000
   16.5425   -2.0506    0.0000 C   0  0  0  0  0  0  0  0  0  0  0  0
   17.2413   -2.4805    0.0000 C   0  0  0  0  0  0  0  0  0  0  0  0
   17.2181   -3.3096    0.0000 C   0  0  0  0  0  0  0  0  0  0  0  0
   16.4961   -3.6999    0.0000 C   0  0  0  0  0  0  0  0  0  0  0  0
   15.7927   -3.2655    0.0000 C   0  0  0  0  0  0  0  0  0  0  0  0
   15.8159   -2.4409    0.0000 C   0  0  0  0  0  0  0  0  0  0  0  0
   16.5657   -1.2260    0.0000 O   0  0  0  0  0  0  0  0  0  0  0  0
   17.9214   -3.7395    0.0000 O   0  0  0  0  0  0  0  0  0  0  0  0
   17.8982   -4.5642    0.0000 C   0  0  0  0  0  0  0  0  0  0  0  0
  1  2  1  0
  2  3  2  0
  3  4  1  0
  4  5  2  0
  5  6  1  0
  1  6  2  0
  1  7  1  0
  8  9  1  0
  3  8  1  0
M  END

> <chembl_id>
CHEMBL57891

> <chembl_pref_name>
1-hydroxy-3-methoxybenzene

$$$$

     RDKit          2D

 10 10  0  0  0  0  0  0  0  0999 V2000
    2.2667   -2.1000    0.0000 C   0  0  0  0  0  0  0  0  0  0  0  0
    1.5042   -2.5375    0.0000 N   0  0  0  0  0  0  0  0  0  0  0  0
    2.2667   -1.2167    0.0000 C   0  0  0  0  0  0  0  0  0  0  0  0
    0.7417   -2.1000    0.0000 C   0  0  0  0  0  0  0  0  0  0  0  0
    0.7417   -1.2167    0.0000 C   0  0  0  0  0  0  0  0  0  0  0  0
    3.0292   -2.5417    0.0000 O   0  0  0  0  0  0  0  0  0  0  0  0
    1.5042   -0.7667    0.0000 C   0  0  0  0  0  0  0  0  0  0  0  0
    3.0292   -0.7750    0.0000 O   0  0  0  0  0  0  0  0  0  0  0  0
    1.5042   -3.4167    0.0000 C   0  0  0  0  0  0  0  0  0  0  0  0
    0.7417   -3.8625    0.0000 C   0  0  0  0  0  0  0  0  0  0  0  0
  2  1  1  0
  3  1  1  0
  4  2  1  0
  5  7  1  0
  6  1  2  0
  7  3  2  0
  8  3  1  0
  9  2  1  0
 10  9  1  0
  5  4  2  0
M  END

> <chembl_id>
CHEMBL300909

> <chembl_pref_name>
None

$$$$

     RDKit          2D

 10 10  0  0  0  0  0  0  0  0999 V2000
   19.3388   -8.8818    0.0000 C   0  0  0  0  0  0  0  0  0  0  0  0
   19.3376   -9.7013    0.0000 C   0  0  0  0  0  0  0  0  0  0  0  0
   20.0457  -10.1103    0.0000 C   0  0  0  0  0  0  0  0  0  0  0  0
   20.7553   -9.7008    0.0000 C   0  0  0  0  0  0  0  0  0  0  0  0
   20.7525   -8.8782    0.0000 C   0  0  0  0  0  0  0  0  0  0  0  0
   20.0439   -8.4729    0.0000 C   0  0  0  0  0  0  0  0  0  0  0  0
   21.4637  -10.1083    0.0000 C   0  0  0  0  0  0  0  0  0  0  0  0
   21.4650  -10.9255    0.0000 O   0  0  0  0  0  0  0  0  0  0  0  0
   22.1708   -9.6986    0.0000 C   0  0  0  0  0  0  0  0  0  0  0  0
   22.8791  -10.1061    0.0000 C   0  0  0  0  0  0  0  0  0  0  0  0
  1  2  2  0
  2  3  1  0
  3  4  2  0
  4  5  1  0
  5  6  2  0
  6  1  1  0
  4  7  1  0
  7  8  2  0
  7  9  1  0
  9 10  2  0
M  END

> <chembl_id>
CHEMBL3099615

> <chembl_pref_name>
None

$$$$

     RDKit          2D

 10 10  0  0  0  0  0  0  0  0999 V2000
    8.1917   -0.4042    0.0000 N   0  0  0  0  0  0  0  0  0  0  0  0
    7.4667    0.0125    0.0000 C   0  0  0  0  0  0  0  0  0  0  0  0
    8.1917   -1.2292    0.0000 C   0  0  0  0  0  0  0  0  0  0  0  0
    8.9042   -1.6417    0.0000 N   0  0  0  0  0  0  0  0  0  0  0  0
    7.4667    0.8458    0.0000 O   0  0  0  0  0  0  0  0  0  0  0  0
    6.7542   -0.4042    0.0000 C   0  0  0  0  0  0  0  0  0  0  0  0
    8.9042   -2.4667    0.0000 C   0  0  0  0  0  0  0  0  0  0  0  0
    7.4667   -1.6417    0.0000 C   0  0  0  0  0  0  0  0  0  0  0  0
    8.1875   -2.8875    0.0000 C   0  0  0  0  0  0  0  0  0  0  0  0
    7.4667   -2.4667    0.0000 C   0  0  0  0  0  0  0  0  0  0  0  0
  2  1  1  0
  3  1  1  0
  4  3  1  0
  5  2  2  0
  6  2  1  0
  7  4  2  0
  8  3  2  0
  9 10  2  0
 10  8  1  0
  7  9  1  0
M  END

> <chembl_id>
CHEMBL12132

> <chembl_pref_name>
None

$$$$

     RDKit          2D

  9  9  0  0  0  0  0  0  0  0999 V2000
    0.8646   -0.5042    0.0000 N   0  0  0  0  0  0  0  0  0  0  0  0
    0.1501   -0.9167    0.0000 C   0  0  0  0  0  0  0  0  0  0  0  0
    0.1501   -1.7417    0.0000 O   0  0  0  0  0  0  0  0  0  0  0  0
   -0.5644   -0.5042    0.0000 N   0  0  0  0  0  0  0  0  0  0  0  0
   -0.5644    0.3208    0.0000 C   0  0  0  0  0  0  0  0  0  0  0  0
   -1.2789    0.7333    0.0000 O   0  0  0  0  0  0  0  0  0  0  0  0
    0.1501    0.7333    0.0000 C   0  0  0  0  0  0  0  0  0  0  0  0
    0.8646    0.3208    0.0000 C   0  0  0  0  0  0  0  0  0  0  0  0
    0.1501    1.5583    0.0000 N   0  0  0  0  0  0  0  0  0  0  0  0
  2  1  1  0
  8  1  1  0
  2  3  2  0
  2  4  1  0
  5  4  1  0
  5  6  2  0
  5  7  1  0
  7  8  2  0
  7  9  1  0
M  END

> <chembl_id>
CHEMBL1236704

> <chembl_pref_name>
None

$$$$

     RDKit          2D

  7  7  0  0  0  0  0  0  0  0999 V2000
    1.6417   -2.6542    0.0000 C   0  0  0  0  0  0  0  0  0  0  0  0
    1.4542   -3.2292    0.0000 N   0  0  0  0  0  0  0  0  0  0  0  0
    1.1542   -2.3042    0.0000 N   0  0  0  0  0  0  0  0  0  0  0  0
    0.8500   -3.2292    0.0000 C   0  0  0  0  0  0  0  0  0  0  0  0
    0.6667   -2.6542    0.0000 C   0  0  0  0  0  0  0  0  0  0  0  0
    2.2125   -2.4750    0.0000 S   0  0  0  0  0  0  0  0  0  0  0  0
    2.6542   -2.8750    0.0000 C   0  0  0  0  0  0  0  0  0  0  0  0
  2  1  2  0
  3  1  1  0
  4  2  1  0
  5  3  1  0
  6  1  1  0
  7  6  1  0
  4  5  2  0
M  END

> <chembl_id>
CHEMBL61455

> <chembl_pref_name>
None

$$$$

     RDKit          2D

  9  9  0  0  0  0  0  0  0  0999 V2000
   14.7625   -4.0458    0.0000 C   0  0  0  0  0  0  0  0  0  0  0  0
   14.7625   -4.8708    0.0000 C   0  0  0  0  0  0  0  0  0  0  0  0
   15.4745   -5.2792    0.0000 O   0  0  0  0  0  0  0  0  0  0  0  0
   16.1865   -4.8708    0.0000 C   0  0  0  0  0  0  0  0  0  0  0  0
   16.1865   -4.0458    0.0000 C   0  0  0  0  0  0  0  0  0  0  0  0
   15.4745   -3.6292    0.0000 C   0  0  0  0  0  0  0  0  0  0  0  0
   16.9004   -5.2844    0.0000 S   0  0  0  0  0  0  0  0  0  0  0  0
   14.0486   -5.2844    0.0000 C   0  0  0  0  0  0  0  0  0  0  0  0
   15.4745   -2.8042    0.0000 C   0  0  0  0  0  0  0  0  0  0  0  0
  2  3  1  0
  3  4  1  0
  4  5  1  0
  5  6  2  0
  4  7  2  0
  1  2  2  0
  2  8  1  0
  1  6  1  0
  6  9  1  0
M  END

> <chembl_id>
CHEMBL1934665

> <chembl_pref_name>
None

$$$$

     RDKit          2D

 10 10  0  0  0  0  0  0  0  0999 V2000
    1.6500    0.7145    0.0000 C   0  0  0  0  0  0  0  0  0  0  0  0
    0.8250    0.7145    0.0000 C   0  0  0  0  0  0  0  0  0  0  0  0
    0.4125    0.0000    0.0000 C   0  0  0  0  0  0  0  0  0  0  0  0
   -0.4125    0.0000    0.0000 C   0  0  0  0  0  0  0  0  0  0  0  0
   -0.8250   -0.7145    0.0000 C   0  0  0  0  0  0  0  0  0  0  0  0
   -1.6500   -0.7145    0.0000 C   0  0  0  0  0  0  0  0  0  0  0  0
   -2.0625    0.0000    0.0000 C   0  0  0  0  0  0  0  0  0  0  0  0
   -1.6500    0.7145    0.0000 C   0  0  0  0  0  0  0  0  0  0  0  0
   -0.8250    0.7145    0.0000 C   0  0  0  0  0  0  0  0  0  0  0  0
    2.0625    0.0000    0.0000 O   0  0  0  0  0  0  0  0  0  0  0  0
  1  2  1  0
  2  3  2  0
  3  4  1  0
  4  5  1  0
  5  6  2  0
  6  7  1  0
  7  8  2  0
  8  9  1  0
  4  9  2  0
  1 10  1  0
M  END

> <chembl_id>
CHEMBL324794

> <chembl_pref_name>
CINNAMIC ALCOHOL

$$$$

     RDKit          2D

 10 10  0  0  0  0  0  0  0  0999 V2000
    3.7875   -4.9542    0.0000 C   0  0  0  0  0  0  0  0  0  0  0  0
    4.5000   -5.3667    0.0000 N   0  0  0  0  0  0  0  0  0  0  0  0
    3.7875   -4.1292    0.0000 N   0  0  0  0  0  0  0  0  0  0  0  0
    3.0667   -5.3667    0.0000 N   0  0  0  0  0  0  0  0  0  0  0  0
    5.2167   -4.9542    0.0000 C   0  0  0  0  0  0  0  0  0  0  0  0
    4.5000   -3.7167    0.0000 C   0  0  0  0  0  0  0  0  0  0  0  0
    5.2167   -4.1292    0.0000 C   0  0  0  0  0  0  0  0  0  0  0  0
    2.3542   -4.9542    0.0000 C   0  0  0  0  0  0  0  0  0  0  0  0
    3.0667   -6.1917    0.0000 C   0  0  0  0  0  0  0  0  0  0  0  0
    5.9292   -5.3667    0.0000 C   0  0  0  0  0  0  0  0  0  0  0  0
  2  1  2  0
  3  1  1  0
  4  1  1  0
  5  2  1  0
  6  3  2  0
  7  6  1  0
  8  4  1  0
  9  4  1  0
 10  5  1  0
  5  7  2  0
M  END

> <chembl_id>
CHEMBL123241

> <chembl_pref_name>
None

$$$$

     RDKit          2D

 10 10  0  0  0  0  0  0  0  0999 V2000
   25.0632  -23.6077    0.0000 C   0  0  0  0  0  0  0  0  0  0  0  0
   25.0621  -24.4272    0.0000 C   0  0  0  0  0  0  0  0  0  0  0  0
   25.7701  -24.8362    0.0000 C   0  0  0  0  0  0  0  0  0  0  0  0
   26.4798  -24.4268    0.0000 C   0  0  0  0  0  0  0  0  0  0  0  0
   26.4770  -23.6041    0.0000 C   0  0  0  0  0  0  0  0  0  0  0  0
   25.7684  -23.1988    0.0000 C   0  0  0  0  0  0  0  0  0  0  0  0
   27.1882  -24.8343    0.0000 N   0  0  0  0  0  0  0  0  0  0  0  0
   27.1831  -23.1929    0.0000 C   0  0  0  0  0  0  0  0  0  0  0  0
   27.8924  -23.5988    0.0000 C   0  0  0  0  0  0  0  0  0  0  0  0
   27.1801  -22.3757    0.0000 O   0  0  0  0  0  0  0  0  0  0  0  0
  1  2  2  0
  2  3  1  0
  3  4  2  0
  4  5  1  0
  5  6  2  0
  6  1  1  0
  4  7  1  0
  5  8  1  0
  8  9  1  0
  8 10  2  0
M  END

> <chembl_id>
CHEMBL2251601

> <chembl_pref_name>
2-AMINOACETOPHENONE

$$$$

     RDKit          2D

  6  6  0  0  0  0  0  0  0  0999 V2000
    0.1334    1.0887    0.0000 O   0  0  0  0  0  0  0  0  0  0  0  0
    0.8008   -0.2212    0.0000 N   0  0  0  0  0  0  0  0  0  0  0  0
   -0.5340   -0.2212    0.0000 N   0  0  0  0  0  0  0  0  0  0  0  0
    0.5459   -1.0058    0.0000 N   0  0  0  0  0  0  0  0  0  0  0  0
    0.1334    0.2637    0.0000 C   0  0  0  0  0  0  0  0  0  0  0  0
   -0.2791   -1.0058    0.0000 C   0  0  0  0  0  0  0  0  0  0  0  0
  1  5  1  0
  2  4  1  0
  2  5  2  0
  3  5  1  0
  3  6  2  0
  4  6  1  0
M  END

> <chembl_id>
CHEMBL1865594

> <chembl_pref_name>
None

$$$$

     RDKit          2D

  9  8  0  0  0  0  0  0  0  0999 V2000
   -2.1945  -17.0692    0.0000 Cl  0  0  0  0  0  0  0  0  0  0  0  0
   -4.6487  -18.2643    0.0000 C   0  0  0  0  0  0  0  0  0  0  0  0
   -4.6499  -19.0911    0.0000 C   0  0  0  0  0  0  0  0  0  0  0  0
   -3.9355  -19.5037    0.0000 C   0  0  0  0  0  0  0  0  0  0  0  0
   -3.2194  -19.0907    0.0000 C   0  0  0  0  0  0  0  0  0  0  0  0
   -3.2223  -18.2606    0.0000 C   0  0  0  0  0  0  0  0  0  0  0  0
   -3.9373  -17.8517    0.0000 C   0  0  0  0  0  0  0  0  0  0  0  0
   -3.9397  -17.0272    0.0000 O   0  0  0  0  0  0  0  0  0  0  0  0
   -3.9357  -20.3282    0.0000 N   0  0  0  0  0  0  0  0  0  0  0  0
  5  6  1  0
  6  7  2  0
  7  2  1  0
  3  4  1  0
  7  8  1  0
  4  9  1  0
  4  5  2  0
  2  3  2  0
M  END

> <chembl_id>
CHEMBL388353

> <chembl_pref_name>
4-AMINOPHENOL HYDROCHLORIDE

$$$$

     RDKit          2D

 10 10  0  0  0  0  0  0  0  0999 V2000
    6.2000   -5.7750    0.0000 C   0  0  0  0  0  0  0  0  0  0  0  0
    6.9125   -5.3625    0.0000 N   0  0  0  0  0  0  0  0  0  0  0  0
    5.4792   -5.3500    0.0000 C   0  0  0  0  0  0  0  0  0  0  0  0
    7.6292   -5.7750    0.0000 O   0  0  0  0  0  0  0  0  0  0  0  0
    6.1917   -6.6042    0.0000 C   0  0  0  0  0  0  0  0  0  0  0  0
    5.4792   -4.5167    0.0000 C   0  0  0  0  0  0  0  0  0  0  0  0
    4.7667   -5.7625    0.0000 C   0  0  0  0  0  0  0  0  0  0  0  0
    4.0500   -5.3500    0.0000 C   0  0  0  0  0  0  0  0  0  0  0  0
    4.7667   -4.1042    0.0000 C   0  0  0  0  0  0  0  0  0  0  0  0
    4.0500   -4.5167    0.0000 C   0  0  0  0  0  0  0  0  0  0  0  0
  2  1  2  0
  3  1  1  0
  4  2  1  0
  5  1  1  0
  6  3  2  0
  7  3  1  0
  8  7  2  0
  9  6  1  0
 10  8  1  0
 10  9  2  0
M  END

> <chembl_id>
CHEMBL336150

> <chembl_pref_name>
None

$$$$

     RDKit          2D

  8  8  0  0  0  0  0  0  0  0999 V2000
    0.2026   -0.9910    0.0000 C   0  0  0  0  0  0  0  0  0  0  0  0
    0.2015   -1.8179    0.0000 C   0  0  0  0  0  0  0  0  0  0  0  0
    0.9159   -2.2306    0.0000 C   0  0  0  0  0  0  0  0  0  0  0  0
    1.6318   -1.8174    0.0000 C   0  0  0  0  0  0  0  0  0  0  0  0
    1.6290   -0.9874    0.0000 C   0  0  0  0  0  0  0  0  0  0  0  0
    0.9141   -0.5786    0.0000 C   0  0  0  0  0  0  0  0  0  0  0  0
    2.3415   -0.5725    0.0000 C   0  0  0  0  0  0  0  0  0  0  0  0
    3.0571   -0.9820    0.0000 S   0  0  0  0  0  0  0  0  0  0  0  0
  4  5  1  0
  2  3  1  0
  5  6  2  0
  6  1  1  0
  1  2  2  0
  5  7  1  0
  3  4  2  0
  7  8  1  0
M  END

> <chembl_id>
CHEMBL1224557

> <chembl_pref_name>
BENZENEMETHANETHIOL

$$$$

     RDKit          2D

 11 12  0  0  0  0  0  0  0  0999 V2000
    0.5500   -1.7625    0.0000 C   0  0  0  0  0  0  0  0  0  0  0  0
    0.1292   -1.0417    0.0000 C   0  0  0  0  0  0  0  0  0  0  0  0
    0.9542   -1.0417    0.0000 C   0  0  0  0  0  0  0  0  0  0  0  0
   -0.1625   -2.1792    0.0000 C   0  0  0  0  0  0  0  0  0  0  0  0
    1.2625   -2.1792    0.0000 N   0  0  0  0  0  0  0  0  0  0  0  0
   -0.8833   -1.7667    0.0000 C   0  0  0  0  0  0  0  0  0  0  0  0
   -0.8750   -0.9375    0.0000 C   0  0  0  0  0  0  0  0  0  0  0  0
   -1.5875   -2.1750    0.0000 C   0  0  0  0  0  0  0  0  0  0  0  0
   -2.3000   -1.7667    0.0000 C   0  0  0  0  0  0  0  0  0  0  0  0
   -1.5875   -0.5250    0.0000 C   0  0  0  0  0  0  0  0  0  0  0  0
   -2.3083   -0.9375    0.0000 C   0  0  0  0  0  0  0  0  0  0  0  0
  2  1  1  0
  3  1  1  0
  4  1  1  0
  5  1  1  0
  6  4  1  0
  7  6  2  0
  8  6  1  0
  9  8  2  0
 10  7  1  0
 11  9  1  0
  3  2  1  0
 11 10  2  0
M  END

> <chembl_id>
CHEMBL58222

> <chembl_pref_name>
None

$$$$

     RDKit          2D

 11 12  0  0  0  0  0  0  0  0999 V2000
    4.4125   -1.1417    0.0000 N   0  0  0  0  0  0  0  0  0  0  0  0
    3.9667   -0.5750    0.0000 N   0  0  0  0  0  0  0  0  0  0  0  0
    3.8667   -1.5417    0.0000 N   0  0  0  0  0  0  0  0  0  0  0  0
    3.3792   -0.7042    0.0000 N   0  0  0  0  0  0  0  0  0  0  0  0
    3.3167   -1.3000    0.0000 C   0  0  0  0  0  0  0  0  0  0  0  0
    2.8042   -1.6042    0.0000 C   0  0  0  0  0  0  0  0  0  0  0  0
    2.2792   -2.5042    0.0000 N   0  0  0  0  0  0  0  0  0  0  0  0
    2.8042   -2.2042    0.0000 C   0  0  0  0  0  0  0  0  0  0  0  0
    2.2792   -1.3042    0.0000 C   0  0  0  0  0  0  0  0  0  0  0  0
    1.7667   -2.2042    0.0000 C   0  0  0  0  0  0  0  0  0  0  0  0
    1.7667   -1.6042    0.0000 C   0  0  0  0  0  0  0  0  0  0  0  0
  2  1  1  0
  3  1  2  0
  4  2  2  0
  5  3  1  0
  6  5  1  0
  7  8  2  0
  8  6  1  0
  9  6  2  0
 10 11  2  0
 11  9  1  0
  4  5  1  0
  7 10  1  0
M  END

> <chembl_id>
CHEMBL80899

> <chembl_pref_name>
None

$$$$

     RDKit          2D

  9  9  0  0  0  0  0  0  0  0999 V2000
    2.5972    1.5031    0.0000 C   0  0  0  0  0  0  0  0  0  0  0  0
    1.2990   -0.7500    0.0000 N   0  0  0  0  0  0  0  0  0  0  0  0
    1.2990    0.7500    0.0000 C   0  0  0  0  0  0  0  0  0  0  0  0
    0.0000    1.5000    0.0000 C   0  0  0  0  0  0  0  0  0  0  0  0
   -1.2990    0.7500    0.0000 C   0  0  0  0  0  0  0  0  0  0  0  0
   -1.2990   -0.7500    0.0000 C   0  0  0  0  0  0  0  0  0  0  0  0
    0.0000   -1.5000    0.0000 C   0  0  0  0  0  0  0  0  0  0  0  0
    2.5955    2.7031    0.0000 O   0  0  0  0  0  0  0  0  0  0  0  0
   -2.3383    1.3500    0.0000 Cl  0  0  0  0  0  0  0  0  0  0  0  0
  1  3  1  0
  1  8  1  0
  3  2  2  0
  7  2  1  0
  3  4  1  0
  4  5  2  0
  5  6  1  0
  5  9  1  0
  6  7  2  0
M  END

> <chembl_id>
CHEMBL1738813

> <chembl_pref_name>
None

$$$$

     RDKit          2D

 10 10  0  0  0  0  0  0  0  0999 V2000
   -5.6251    2.0537    0.0000 C   0  0  0  0  0  0  0  0  0  0  0  0
   -5.6263    1.2265    0.0000 C   0  0  0  0  0  0  0  0  0  0  0  0
   -4.9116    0.8138    0.0000 C   0  0  0  0  0  0  0  0  0  0  0  0
   -4.1953    1.2270    0.0000 C   0  0  0  0  0  0  0  0  0  0  0  0
   -4.1982    2.0573    0.0000 C   0  0  0  0  0  0  0  0  0  0  0  0
   -4.9134    2.4664    0.0000 C   0  0  0  0  0  0  0  0  0  0  0  0
   -3.4855    2.4724    0.0000 C   0  0  0  0  0  0  0  0  0  0  0  0
   -2.7696    2.0627    0.0000 C   0  0  0  0  0  0  0  0  0  0  0  0
   -3.4886    3.2972    0.0000 C   0  0  0  0  0  0  0  0  0  0  0  0
   -2.7743    2.8910    0.0000 C   0  0  0  0  0  0  0  0  0  0  0  0
  2  3  1  0
  5  6  2  0
  6  1  1  0
  1  2  2  0
  5  7  1  0
  3  4  2  0
  7  8  1  0
  7  9  1  0
  4  5  1  0
  7 10  1  0
M  END

> <chembl_id>
CHEMBL1797277

> <chembl_pref_name>
tert-Butylbenzene

$$$$

     RDKit          2D

  9  9  0  0  0  0  0  0  0  0999 V2000
    1.2990   -0.7500    0.0000 N   0  0  0  0  0  0  0  0  0  0  0  0
    1.2990    0.7500    0.0000 C   0  0  0  0  0  0  0  0  0  0  0  0
    2.3383    1.3500    0.0000 O   0  0  0  0  0  0  0  0  0  0  0  0
    0.0000    1.5000    0.0000 N   0  0  0  0  0  0  0  0  0  0  0  0
   -1.2990    0.7500    0.0000 C   0  0  0  0  0  0  0  0  0  0  0  0
   -2.3383    1.3500    0.0000 O   0  0  0  0  0  0  0  0  0  0  0  0
   -1.2990   -0.7500    0.0000 C   0  0  0  0  0  0  0  0  0  0  0  0
   -2.3383   -1.3500    0.0000 C   0  0  0  0  0  0  0  0  0  0  0  0
    0.0000   -1.5000    0.0000 C   0  0  0  0  0  0  0  0  0  0  0  0
  2  1  1  0
  9  1  1  0
  2  3  2  0
  2  4  1  0
  5  4  1  0
  5  6  2  0
  5  7  1  0
  7  8  1  0
  7  9  2  0
M  END

> <chembl_id>
CHEMBL993

> <chembl_pref_name>
THYMINE

$$$$

     RDKit          2D

  9  9  0  0  0  0  0  0  0  0999 V2000
   -0.1557    1.4182    0.0000 O   0  0  0  0  0  0  0  0  0  0  0  0
    0.5118    0.1083    0.0000 N   0  0  0  0  0  0  0  0  0  0  0  0
   -0.5682   -0.6763    0.0000 N   0  0  0  0  0  0  0  0  0  0  0  0
   -0.8231    0.1083    0.0000 N   0  0  0  0  0  0  0  0  0  0  0  0
    0.2568   -0.6763    0.0000 C   0  0  0  0  0  0  0  0  0  0  0  0
   -0.1557    0.5932    0.0000 C   0  0  0  0  0  0  0  0  0  0  0  0
    0.7418   -1.3438    0.0000 C   0  0  0  0  0  0  0  0  0  0  0  0
    0.4062   -2.0974    0.0000 C   0  0  0  0  0  0  0  0  0  0  0  0
    0.8911   -2.7649    0.0000 C   0  0  0  0  0  0  0  0  0  0  0  0
  1  6  1  0
  2  5  1  0
  2  6  2  0
  3  4  1  0
  3  5  2  0
  4  6  1  0
  5  7  1  0
  7  8  1  0
  8  9  1  0
M  END

> <chembl_id>
CHEMBL1366803

> <chembl_pref_name>
None

$$$$

     RDKit          2D

 10 10  0  0  0  0  0  0  0  0999 V2000
    0.1417    0.5250    0.0000 C   0  0  0  0  0  0  0  0  0  0  0  0
    0.8500    0.1083    0.0000 C   0  0  0  0  0  0  0  0  0  0  0  0
   -0.6333    0.2708    0.0000 N   0  0  0  0  0  0  0  0  0  0  0  0
   -0.6458    1.5875    0.0000 N   0  0  0  0  0  0  0  0  0  0  0  0
    0.1292    1.3458    0.0000 C   0  0  0  0  0  0  0  0  0  0  0  0
   -1.1208    0.9208    0.0000 C   0  0  0  0  0  0  0  0  0  0  0  0
    0.8500   -0.7167    0.0000 O   0  0  0  0  0  0  0  0  0  0  0  0
    1.5625    0.5208    0.0000 N   0  0  0  0  0  0  0  0  0  0  0  0
    2.2750    0.1083    0.0000 N   0  0  0  0  0  0  0  0  0  0  0  0
   -0.8833   -0.5167    0.0000 C   0  0  0  0  0  0  0  0  0  0  0  0
  2  1  1  0
  3  1  1  0
  4  5  1  0
  5  1  2  0
  6  3  1  0
  7  2  2  0
  8  2  1  0
  9  8  1  0
 10  3  1  0
  6  4  2  0
M  END

> <chembl_id>
CHEMBL340290

> <chembl_pref_name>
None

$$$$

     RDKit          2D

  7  7  0  0  0  0  0  0  0  0999 V2000
    1.6417   -2.6542    0.0000 C   0  0  0  0  0  0  0  0  0  0  0  0
    1.1542   -2.3042    0.0000 N   0  0  0  0  0  0  0  0  0  0  0  0
    1.4542   -3.2292    0.0000 N   0  0  0  0  0  0  0  0  0  0  0  0
    0.8500   -3.2292    0.0000 C   0  0  0  0  0  0  0  0  0  0  0  0
    0.6667   -2.6542    0.0000 C   0  0  0  0  0  0  0  0  0  0  0  0
    2.2125   -2.4750    0.0000 F   0  0  0  0  0  0  0  0  0  0  0  0
    1.1542   -1.7042    0.0000 C   0  0  0  0  0  0  0  0  0  0  0  0
  2  1  1  0
  3  1  2  0
  4  3  1  0
  5  2  1  0
  6  1  1  0
  7  2  1  0
  4  5  2  0
M  END

> <chembl_id>
CHEMBL62383

> <chembl_pref_name>
None

$$$$

     RDKit          2D

  9  9  0  0  0  0  0  0  0  0999 V2000
   10.5524   -6.0058    0.0000 C   0  0  0  0  0  0  0  0  0  0  0  0
    9.7676   -5.7511    0.0000 C   0  0  0  0  0  0  0  0  0  0  0  0
    9.0999   -6.2364    0.0000 N   0  0  0  0  0  0  0  0  0  0  0  0
    9.5130   -4.9664    0.0000 C   0  0  0  0  0  0  0  0  0  0  0  0
   10.7244   -6.8146    0.0000 O   0  0  0  0  0  0  0  0  0  0  0  0
    8.4322   -5.7511    0.0000 C   0  0  0  0  0  0  0  0  0  0  0  0
   11.1649   -5.4552    0.0000 N   0  0  0  0  0  0  0  0  0  0  0  0
    8.6869   -4.9664    0.0000 C   0  0  0  0  0  0  0  0  0  0  0  0
   11.9532   -5.7098    0.0000 N   0  0  0  0  0  0  0  0  0  0  0  0
  2  1  1  0
  3  2  1  0
  4  2  2  0
  5  1  2  0
  6  3  1  0
  7  1  1  0
  8  4  1  0
  9  7  1  0
  8  6  2  0
M  END

> <chembl_id>
CHEMBL3091662

> <chembl_pref_name>
None

$$$$

     RDKit          2D

  9  9  0  0  0  0  0  0  0  0999 V2000
    5.4542   -3.1417    0.0000 N   0  0  0  0  0  0  0  0  0  0  0  0
    6.5000   -3.1500    0.0000 C   0  0  0  0  0  0  0  0  0  0  0  0
    5.9792   -2.8417    0.0000 C   0  0  0  0  0  0  0  0  0  0  0  0
    7.0167   -2.8500    0.0000 O   0  0  0  0  0  0  0  0  0  0  0  0
    4.9417   -2.8417    0.0000 C   0  0  0  0  0  0  0  0  0  0  0  0
    6.4917   -3.7500    0.0000 C   0  0  0  0  0  0  0  0  0  0  0  0
    5.9792   -2.2417    0.0000 C   0  0  0  0  0  0  0  0  0  0  0  0
    4.9417   -2.2417    0.0000 C   0  0  0  0  0  0  0  0  0  0  0  0
    5.4542   -1.9417    0.0000 C   0  0  0  0  0  0  0  0  0  0  0  0
  2  3  1  0
  3  1  2  0
  4  2  2  0
  5  1  1  0
  6  2  1  0
  7  3  1  0
  8  5  2  0
  9  8  1  0
  9  7  2  0
M  END

> <chembl_id>
CHEMBL11945

> <chembl_pref_name>
None

$$$$

     RDKit          2D

  9  9  0  0  0  0  0  0  0  0999 V2000
   11.6030  -21.8978    0.0000 O   0  0  0  0  0  0  0  0  0  0  0  0
   12.0116  -21.1911    0.0000 C   0  0  0  0  0  0  0  0  0  0  0  0
   11.6030  -20.4803    0.0000 C   0  0  0  0  0  0  0  0  0  0  0  0
   12.0116  -19.7737    0.0000 C   0  0  0  0  0  0  0  0  0  0  0  0
   11.6030  -19.0670    0.0000 O   0  0  0  0  0  0  0  0  0  0  0  0
   12.8288  -19.7737    0.0000 C   0  0  0  0  0  0  0  0  0  0  0  0
   13.2374  -20.4803    0.0000 C   0  0  0  0  0  0  0  0  0  0  0  0
   12.8288  -21.1912    0.0000 C   0  0  0  0  0  0  0  0  0  0  0  0
   10.7859  -20.4803    0.0000 F   0  0  0  0  0  0  0  0  0  0  0  0
  1  2  1  0
  2  3  1  0
  3  4  2  0
  4  5  1  0
  4  6  1  0
  6  7  2  0
  7  8  1  0
  2  8  2  0
  3  9  1  0
M  END

> <chembl_id>
CHEMBL2332775

> <chembl_pref_name>
None

$$$$

     RDKit          2D

  9  9  0  0  0  0  0  0  0  0999 V2000
    9.2262   -4.0516    0.0000 N   0  0  0  0  0  0  0  0  0  0  0  0
    9.4767   -4.8331    0.0000 N   0  0  0  0  0  0  0  0  0  0  0  0
    8.8134   -5.3132    0.0000 C   0  0  0  0  0  0  0  0  0  0  0  0
    8.1501   -4.8331    0.0000 C   0  0  0  0  0  0  0  0  0  0  0  0
    8.4047   -4.0516    0.0000 C   0  0  0  0  0  0  0  0  0  0  0  0
    8.8134   -6.1383    0.0000 C   0  0  0  0  0  0  0  0  0  0  0  0
    8.0989   -6.5508    0.0000 C   0  0  0  0  0  0  0  0  0  0  0  0
    7.3844   -6.1383    0.0000 C   0  0  0  0  0  0  0  0  0  0  0  0
    7.3844   -5.3132    0.0000 Cl  0  0  0  0  0  0  0  0  0  0  0  0
  1  2  1  0
  2  3  2  0
  3  4  1  0
  4  5  2  0
  1  5  1  0
  3  6  1  0
  6  7  1  0
  7  8  1  0
  8  9  1  0
M  END

> <chembl_id>
CHEMBL3275950

> <chembl_pref_name>
None

$$$$

     RDKit          2D

 10 10  0  0  0  0  0  0  0  0999 V2000
   22.2650   -4.5853    0.0000 C   0  0  0  0  0  0  0  0  0  0  0  0
   22.2638   -5.4048    0.0000 C   0  0  0  0  0  0  0  0  0  0  0  0
   22.9719   -5.8138    0.0000 C   0  0  0  0  0  0  0  0  0  0  0  0
   23.6815   -5.4044    0.0000 C   0  0  0  0  0  0  0  0  0  0  0  0
   23.6787   -4.5817    0.0000 C   0  0  0  0  0  0  0  0  0  0  0  0
   22.9701   -4.1765    0.0000 C   0  0  0  0  0  0  0  0  0  0  0  0
   22.9677   -3.3593    0.0000 N   0  0  0  0  0  0  0  0  0  0  0  0
   22.9717   -6.6310    0.0000 C   0  0  0  0  0  0  0  0  0  0  0  0
   23.6741   -2.9486    0.0000 C   0  0  0  0  0  0  0  0  0  0  0  0
   23.6717   -2.1314    0.0000 O   0  0  0  0  0  0  0  0  0  0  0  0
  1  2  2  0
  2  3  1  0
  3  4  2  0
  4  5  1  0
  5  6  2  0
  6  1  1  0
  6  7  1  0
  3  8  1  0
  7  9  1  0
  9 10  2  0
M  END

> <chembl_id>
CHEMBL3252141

> <chembl_pref_name>
None

$$$$

     RDKit          2D

 10 10  0  0  0  0  0  0  0  0999 V2000
    3.1125   -3.4667    0.0000 N   0  0  0  0  0  0  0  0  0  0  0  0
    3.1125   -4.3542    0.0000 C   0  0  0  0  0  0  0  0  0  0  0  0
    3.8750   -3.0250    0.0000 C   0  0  0  0  0  0  0  0  0  0  0  0
    3.8750   -4.7917    0.0000 N   0  0  0  0  0  0  0  0  0  0  0  0
    4.6375   -3.4667    0.0000 C   0  0  0  0  0  0  0  0  0  0  0  0
    4.6375   -4.3542    0.0000 C   0  0  0  0  0  0  0  0  0  0  0  0
    2.3500   -4.7917    0.0000 O   0  0  0  0  0  0  0  0  0  0  0  0
    3.8750   -2.1417    0.0000 O   0  0  0  0  0  0  0  0  0  0  0  0
    2.3500   -3.0292    0.0000 C   0  0  0  0  0  0  0  0  0  0  0  0
    3.8750   -5.6750    0.0000 C   0  0  0  0  0  0  0  0  0  0  0  0
  2  1  1  0
  3  1  1  0
  4  2  1  0
  5  3  1  0
  6  5  2  0
  7  2  2  0
  8  3  2  0
  9  1  1  0
 10  4  1  0
  6  4  1  0
M  END

> <chembl_id>
CHEMBL11470

> <chembl_pref_name>
None

$$$$

     RDKit          2D

 11 12  0  0  0  0  0  0  0  0999 V2000
    1.2990   -0.7500    0.0000 N   0  0  0  0  0  0  0  0  0  0  0  0
    1.2990    0.7500    0.0000 C   0  0  0  0  0  0  0  0  0  0  0  0
    0.0000    1.5000    0.0000 C   0  0  0  0  0  0  0  0  0  0  0  0
   -1.2990    0.7500    0.0000 C   0  0  0  0  0  0  0  0  0  0  0  0
   -1.2990   -0.7500    0.0000 N   0  0  0  0  0  0  0  0  0  0  0  0
    0.0000   -1.5000    0.0000 C   0  0  0  0  0  0  0  0  0  0  0  0
    0.0000   -3.0008    0.0000 N   0  0  0  0  0  0  0  0  0  0  0  0
   -1.2122   -3.8625    0.0000 C   0  0  0  0  0  0  0  0  0  0  0  0
   -0.7464   -5.2884    0.0000 C   0  0  0  0  0  0  0  0  0  0  0  0
    0.7536   -5.2860    0.0000 C   0  0  0  0  0  0  0  0  0  0  0  0
    1.2149   -3.8587    0.0000 C   0  0  0  0  0  0  0  0  0  0  0  0
  1  2  2  0
  2  3  1  0
  3  4  2  0
  4  5  1  0
  5  6  2  0
  6  1  1  0
  6  7  1  0
  7  8  1  0
  8  9  1  0
  9 10  1  0
 10 11  1  0
 11  7  1  0
M  END

> <chembl_id>
CHEMBL3739764

> <chembl_pref_name>
None

$$$$

     RDKit          2D

 10 10  0  0  0  0  0  0  0  0999 V2000
   -3.3766   -6.2914    0.0000 C   0  0  0  0  0  0  0  0  0  0  0  0
   -2.6503   -5.8961    0.0000 C   0  0  0  0  0  0  0  0  0  0  0  0
   -2.6305   -5.0713    0.0000 C   0  0  0  0  0  0  0  0  0  0  0  0
   -3.3363   -4.6408    0.0000 C   0  0  0  0  0  0  0  0  0  0  0  0
   -4.0634   -5.0411    0.0000 C   0  0  0  0  0  0  0  0  0  0  0  0
   -4.0797   -5.8647    0.0000 C   0  0  0  0  0  0  0  0  0  0  0  0
   -4.8023   -6.2620    0.0000 O   0  0  0  0  0  0  0  0  0  0  0  0
   -1.9036   -4.6835    0.0000 C   0  0  0  0  0  0  0  0  0  0  0  0
   -1.8760   -3.8595    0.0000 N   0  0  0  0  0  0  0  0  0  0  0  0
   -1.1485   -3.4714    0.0000 N   0  0  0  0  0  0  0  0  0  0  0  0
  2  3  1  0
  5  6  2  0
  6  1  1  0
  1  2  2  0
  6  7  1  0
  3  4  2  0
  3  8  1  0
  8  9  2  0
  4  5  1  0
  9 10  1  0
M  END

> <chembl_id>
CHEMBL222174

> <chembl_pref_name>
None

$$$$

     RDKit          2D

  8  8  0  0  0  0  0  0  0  0999 V2000
    2.3042   -0.2167    0.0000 N   0  0  0  0  0  0  0  0  0  0  0  0
    2.8250   -1.1167    0.0000 N   0  0  0  0  0  0  0  0  0  0  0  0
    3.3417   -0.2167    0.0000 C   0  0  0  0  0  0  0  0  0  0  0  0
    2.8250    0.0833    0.0000 C   0  0  0  0  0  0  0  0  0  0  0  0
    3.3417   -0.8167    0.0000 C   0  0  0  0  0  0  0  0  0  0  0  0
    2.3042   -0.8167    0.0000 C   0  0  0  0  0  0  0  0  0  0  0  0
    2.8167    0.6833    0.0000 N   0  0  0  0  0  0  0  0  0  0  0  0
    3.8667   -1.1167    0.0000 O   0  0  0  0  0  0  0  0  0  0  0  0
  2  6  1  0
  3  4  2  0
  4  1  1  0
  5  2  2  0
  6  1  2  0
  7  4  1  0
  8  5  1  0
  5  3  1  0
M  END

> <chembl_id>
CHEMBL299933

> <chembl_pref_name>
None

$$$$

     RDKit          2D

 10 10  0  0  0  0  0  0  0  0999 V2000
    2.9071  -11.9826    0.0000 N   0  0  0  0  0  0  0  0  0  0  0  0
    3.6219  -11.5707    0.0000 C   0  0  0  0  0  0  0  0  0  0  0  0
    4.3367  -11.9826    0.0000 C   0  0  0  0  0  0  0  0  0  0  0  0
    5.0474  -11.5707    0.0000 C   0  0  0  0  0  0  0  0  0  0  0  0
    5.1362  -10.7496    0.0000 C   0  0  0  0  0  0  0  0  0  0  0  0
    5.9410  -10.5774    0.0000 N   0  0  0  0  0  0  0  0  0  0  0  0
    6.3529  -11.2923    0.0000 C   0  0  0  0  0  0  0  0  0  0  0  0
    5.8007  -11.9036    0.0000 N   0  0  0  0  0  0  0  0  0  0  0  0
    2.1941  -11.5701    0.0000 C   0  0  0  0  0  0  0  0  0  0  0  0
    2.9064  -12.8064    0.0000 C   0  0  0  0  0  0  0  0  0  0  0  0
  1  2  1  0
  2  3  1  0
  3  4  1  0
  4  5  2  0
  5  6  1  0
  6  7  2  0
  7  8  1  0
  4  8  1  0
  1  9  1  0
  1 10  1  0
M  END

> <chembl_id>
CHEMBL12704

> <chembl_pref_name>
None

$$$$

     RDKit          2D

 10 10  0  0  0  0  0  0  0  0999 V2000
   -0.3589   -1.8532    0.0000 N   0  0  0  0  0  0  0  0  0  0  0  0
    0.3589   -1.4467    0.0000 C   0  0  0  0  0  0  0  0  0  0  0  0
    1.0699   -1.8651    0.0000 O   0  0  0  0  0  0  0  0  0  0  0  0
    0.3658   -0.6217    0.0000 N   0  0  0  0  0  0  0  0  0  0  0  0
   -0.3452   -0.2033    0.0000 C   0  0  0  0  0  0  0  0  0  0  0  0
   -0.3383    0.6217    0.0000 N   0  0  0  0  0  0  0  0  0  0  0  0
   -1.0631   -0.6098    0.0000 C   0  0  0  0  0  0  0  0  0  0  0  0
   -1.0699   -1.4348    0.0000 C   0  0  0  0  0  0  0  0  0  0  0  0
   -1.0493    1.0402    0.0000 C   0  0  0  0  0  0  0  0  0  0  0  0
   -1.0424    1.8651    0.0000 C   0  0  0  0  0  0  0  0  0  0  0  0
  1  2  1  0
  2  3  2  0
  2  4  1  0
  4  5  2  0
  5  6  1  0
  5  7  1  0
  7  8  2  0
  1  8  1  0
  9 10  1  0
  6  9  2  0
M  END

> <chembl_id>
CHEMBL2063062

> <chembl_pref_name>
None

$$$$

     RDKit          2D

 10 10  0  0  1  0  0  0  0  0999 V2000
    3.1667   -1.2250    0.0000 C   0  0  0  0  0  0  0  0  0  0  0  0
    3.1667   -2.0500    0.0000 C   0  0  0  0  0  0  0  0  0  0  0  0
    3.8792   -2.4625    0.0000 O   0  0  0  0  0  0  0  0  0  0  0  0
    3.8875   -0.8125    0.0000 C   0  0  0  0  0  0  0  0  0  0  0  0
    2.4542   -0.8167    0.0000 C   0  0  0  0  0  0  0  0  0  0  0  0
    2.4542   -2.4625    0.0000 C   0  0  0  0  0  0  0  0  0  0  0  0
    1.7417   -2.0500    0.0000 C   0  0  0  0  0  0  0  0  0  0  0  0
    3.8875    0.0083    0.0000 C   0  0  0  0  0  0  0  0  0  0  0  0
    2.4542    0.0083    0.0000 C   0  0  0  0  0  0  0  0  0  0  0  0
    3.1750    0.4250    0.0000 C   0  0  0  0  0  0  0  0  0  0  0  0
  2  1  1  1
  3  2  1  0
  4  1  2  0
  5  1  1  0
  6  2  1  0
  7  6  1  0
  8  4  1  0
  9  5  2  0
 10  9  1  0
  8 10  2  0
M  END

> <chembl_id>
CHEMBL345759

> <chembl_pref_name>
None

$$$$

     RDKit          2D

 11 11  0  0  0  0  0  0  0  0999 V2000
   17.9310  -16.7010    0.0000 C   0  0  0  0  0  0  0  0  0  0  0  0
   17.1060  -16.7010    0.0000 C   0  0  0  0  0  0  0  0  0  0  0  0
   16.6935  -17.4155    0.0000 C   0  0  0  0  0  0  0  0  0  0  0  0
   15.8685  -17.4155    0.0000 C   0  0  0  0  0  0  0  0  0  0  0  0
   15.4560  -16.7010    0.0000 C   0  0  0  0  0  0  0  0  0  0  0  0
   15.8685  -15.9865    0.0000 C   0  0  0  0  0  0  0  0  0  0  0  0
   16.6935  -15.9865    0.0000 C   0  0  0  0  0  0  0  0  0  0  0  0
   18.3435  -17.4155    0.0000 O   0  0  0  0  0  0  0  0  0  0  0  0
   18.3435  -15.9865    0.0000 O   0  0  0  0  0  0  0  0  0  0  0  0
   19.1685  -15.9865    0.0000 C   0  0  0  0  0  0  0  0  0  0  0  0
   19.5810  -15.2721    0.0000 C   0  0  0  0  0  0  0  0  0  0  0  0
  1  2  1  0
  2  3  1  0
  3  4  2  0
  4  5  1  0
  5  6  2  0
  6  7  1  0
  2  7  2  0
  1  8  2  0
  1  9  1  0
 10 11  2  0
  9 10  1  0
M  END

> <chembl_id>
CHEMBL2260720

> <chembl_pref_name>
BENZOIC ACID VINYL ESTER

$$$$

     RDKit          2D

 10 10  0  0  0  0  0  0  0  0999 V2000
    1.4285    0.5766    0.0000 O   0  0  0  0  0  0  0  0  0  0  0  0
    1.4285   -2.7234    0.0000 N   0  0  0  0  0  0  0  0  0  0  0  0
    2.1430   -1.4859    0.0000 C   0  0  0  0  0  0  0  0  0  0  0  0
    1.4285   -0.2484    0.0000 C   0  0  0  0  0  0  0  0  0  0  0  0
    1.4285   -1.8984    0.0000 C   0  0  0  0  0  0  0  0  0  0  0  0
    2.1430   -0.6609    0.0000 C   0  0  0  0  0  0  0  0  0  0  0  0
    0.7141   -0.6609    0.0000 C   0  0  0  0  0  0  0  0  0  0  0  0
    0.7141   -1.4859    0.0000 C   0  0  0  0  0  0  0  0  0  0  0  0
    2.8575   -1.8984    0.0000 C   0  0  0  0  0  0  0  0  0  0  0  0
    0.7141    0.9891    0.0000 C   0  0  0  0  0  0  0  0  0  0  0  0
  1  4  1  0
  1 10  1  0
  2  5  1  0
  3  5  2  0
  3  6  1  0
  3  9  1  0
  4  6  2  0
  4  7  1  0
  5  8  1  0
  7  8  2  0
M  END

> <chembl_id>
CHEMBL1361784

> <chembl_pref_name>
None

$$$$

     RDKit          2D

  9  9  0  0  0  0  0  0  0  0999 V2000
    8.2014    1.7970    0.0000 N   0  0  0  0  0  0  0  0  0  0  0  0
    8.2003    0.9711    0.0000 C   0  0  0  0  0  0  0  0  0  0  0  0
    8.9139    0.5589    0.0000 N   0  0  0  0  0  0  0  0  0  0  0  0
    9.6290    0.9715    0.0000 C   0  0  0  0  0  0  0  0  0  0  0  0
    9.6263    1.8007    0.0000 C   0  0  0  0  0  0  0  0  0  0  0  0
    8.9121    2.2091    0.0000 C   0  0  0  0  0  0  0  0  0  0  0  0
   10.3394    2.2154    0.0000 C   0  0  0  0  0  0  0  0  0  0  0  0
   11.0543    1.8063    0.0000 O   0  0  0  0  0  0  0  0  0  0  0  0
   10.3364    3.0390    0.0000 O   0  0  0  0  0  0  0  0  0  0  0  0
  4  5  1  0
  2  3  1  0
  5  6  2  0
  6  1  1  0
  1  2  2  0
  3  4  2  0
  7  8  1  0
  7  9  2  0
  5  7  1  0
M  END

> <chembl_id>
CHEMBL247316

> <chembl_pref_name>
None

$$$$

     RDKit          2D

 10 10  0  0  0  0  0  0  0  0999 V2000
   15.6144  -20.9144    0.0000 C   0  0  0  0  0  0  0  0  0  0  0  0
   15.6131  -21.7406    0.0000 C   0  0  0  0  0  0  0  0  0  0  0  0
   16.3249  -22.1527    0.0000 C   0  0  0  0  0  0  0  0  0  0  0  0
   17.0430  -21.7400    0.0000 C   0  0  0  0  0  0  0  0  0  0  0  0
   17.0399  -20.9104    0.0000 C   0  0  0  0  0  0  0  0  0  0  0  0
   16.3229  -20.5022    0.0000 C   0  0  0  0  0  0  0  0  0  0  0  0
   16.3191  -19.6787    0.0000 O   0  0  0  0  0  0  0  0  0  0  0  0
   16.3236  -22.9763    0.0000 F   0  0  0  0  0  0  0  0  0  0  0  0
   17.7510  -20.4950    0.0000 F   0  0  0  0  0  0  0  0  0  0  0  0
   14.9009  -20.5031    0.0000 F   0  0  0  0  0  0  0  0  0  0  0  0
  2  3  1  0
  5  6  2  0
  6  1  1  0
  1  2  2  0
  6  7  1  0
  3  4  2  0
  3  8  1  0
  5  9  1  0
  4  5  1  0
  1 10  1  0
M  END

> <chembl_id>
CHEMBL236138

> <chembl_pref_name>
None

$$$$

     RDKit          2D

 10 10  0  0  0  0  0  0  0  0999 V2000
    1.0625   -0.5667    0.0000 C   0  0  0  0  0  0  0  0  0  0  0  0
    1.7875   -0.9875    0.0000 N   0  0  0  0  0  0  0  0  0  0  0  0
    1.7792   -3.4667    0.0000 N   0  0  0  0  0  0  0  0  0  0  0  0
    1.0625    0.2625    0.0000 O   0  0  0  0  0  0  0  0  0  0  0  0
    1.7875   -1.8125    0.0000 C   0  0  0  0  0  0  0  0  0  0  0  0
    1.0625   -2.2250    0.0000 C   0  0  0  0  0  0  0  0  0  0  0  0
    2.5000   -2.2250    0.0000 C   0  0  0  0  0  0  0  0  0  0  0  0
    2.5000   -3.0500    0.0000 C   0  0  0  0  0  0  0  0  0  0  0  0
    1.0625   -3.0500    0.0000 C   0  0  0  0  0  0  0  0  0  0  0  0
    0.3500   -0.9875    0.0000 C   0  0  0  0  0  0  0  0  0  0  0  0
  2  1  1  0
  3  8  1  0
  4  1  2  0
  5  2  1  0
  6  5  2  0
  7  5  1  0
  8  7  2  0
  9  6  1  0
 10  1  1  0
  3  9  2  0
M  END

> <chembl_id>
CHEMBL11959

> <chembl_pref_name>
None

$$$$

     RDKit          2D

  9 10  0  0  0  0  0  0  0  0999 V2000
    0.0433    1.5373    0.0000 C   0  0  0  0  0  0  0  0  0  0  0  0
    0.7577    1.1248    0.0000 C   0  0  0  0  0  0  0  0  0  0  0  0
    0.7577    0.2998    0.0000 C   0  0  0  0  0  0  0  0  0  0  0  0
    0.0433   -0.1127    0.0000 C   0  0  0  0  0  0  0  0  0  0  0  0
   -0.6712    0.2998    0.0000 C   0  0  0  0  0  0  0  0  0  0  0  0
   -0.6712    1.1248    0.0000 C   0  0  0  0  0  0  0  0  0  0  0  0
    0.0433   -0.9377    0.0000 C   0  0  0  0  0  0  0  0  0  0  0  0
    0.4558   -1.6522    0.0000 C   0  0  0  0  0  0  0  0  0  0  0  0
   -0.3692   -1.6522    0.0000 O   0  0  0  0  0  0  0  0  0  0  0  0
  1  2  2  0
  1  6  1  0
  2  3  1  0
  3  4  2  0
  4  5  1  0
  7  4  1  6
  5  6  2  0
  7  8  1  0
  7  9  1  0
  8  9  1  0
M  END

> <chembl_id>
CHEMBL1235743

> <chembl_pref_name>
None

$$$$

     RDKit          2D

  8  8  0  0  0  0  0  0  0  0999 V2000
   -4.8447  -12.2836    0.0000 S   0  0  0  0  0  0  0  0  0  0  0  0
   -4.0197  -12.2836    0.0000 N   0  0  0  0  0  0  0  0  0  0  0  0
   -3.7647  -11.4989    0.0000 C   0  0  0  0  0  0  0  0  0  0  0  0
   -4.4322  -11.0139    0.0000 C   0  0  0  0  0  0  0  0  0  0  0  0
   -5.0996  -11.4989    0.0000 C   0  0  0  0  0  0  0  0  0  0  0  0
   -2.9801  -11.2441    0.0000 O   0  0  0  0  0  0  0  0  0  0  0  0
   -3.5348  -12.9511    0.0000 C   0  0  0  0  0  0  0  0  0  0  0  0
   -3.8703  -13.7047    0.0000 C   0  0  0  0  0  0  0  0  0  0  0  0
  3  4  1  0
  4  5  2  0
  5  1  1  0
  1  2  1  0
  3  6  2  0
  2  7  1  0
  2  3  1  0
  7  8  1  0
M  END

> <chembl_id>
CHEMBL490685

> <chembl_pref_name>
None

$$$$

     RDKit          2D

  9  9  0  0  0  0  0  0  0  0999 V2000
    2.1423   -0.0579    0.0000 O   0  0  0  0  0  0  0  0  0  0  0  0
   -0.0400   -0.0157    0.0000 N   0  0  0  0  0  0  0  0  0  0  0  0
   -0.2949   -0.8003    0.0000 N   0  0  0  0  0  0  0  0  0  0  0  0
   -1.3749   -0.0157    0.0000 N   0  0  0  0  0  0  0  0  0  0  0  0
   -1.1199   -0.8003    0.0000 N   0  0  0  0  0  0  0  0  0  0  0  0
   -0.7074    1.2942    0.0000 N   0  0  0  0  0  0  0  0  0  0  0  0
   -0.7074    0.4692    0.0000 C   0  0  0  0  0  0  0  0  0  0  0  0
    0.7446    0.2392    0.0000 C   0  0  0  0  0  0  0  0  0  0  0  0
    1.3577   -0.3128    0.0000 C   0  0  0  0  0  0  0  0  0  0  0  0
  1  9  1  0
  2  3  1  0
  7  2  1  0
  2  8  1  0
  3  5  2  0
  4  5  1  0
  4  7  2  0
  6  7  1  0
  8  9  1  0
M  END

> <chembl_id>
CHEMBL1491759

> <chembl_pref_name>
None

$$$$
 
     RDKit          2D

  9  9  0  0  0  0  0  0  0  0999 V2000
   11.2824   -4.0859    0.0000 C   0  0  0  0  0  0  0  0  0  0  0  0
   11.2813   -4.9055    0.0000 C   0  0  0  0  0  0  0  0  0  0  0  0
   11.9893   -5.3144    0.0000 C   0  0  0  0  0  0  0  0  0  0  0  0
   12.6990   -4.9050    0.0000 C   0  0  0  0  0  0  0  0  0  0  0  0
   12.6962   -4.0823    0.0000 C   0  0  0  0  0  0  0  0  0  0  0  0
   11.9875   -3.6771    0.0000 C   0  0  0  0  0  0  0  0  0  0  0  0
   11.9851   -2.8599    0.0000 C   0  0  0  0  0  0  0  0  0  0  0  0
   12.6916   -2.4492    0.0000 F   0  0  0  0  0  0  0  0  0  0  0  0
   11.2762   -2.4534    0.0000 F   0  0  0  0  0  0  0  0  0  0  0  0
  1  2  2  0
  2  3  1  0
  3  4  2  0
  4  5  1  0
  5  6  2  0
  6  1  1  0
  6  7  1  0
  7  8  1  0
  7  9  1  0
M  END

> <chembl_id>
CHEMBL4452721

> <chembl_pref_name>
None

$$$$

     RDKit          2D

 11 11  0  0  0  0  0  0  0  0999 V2000
   23.2473  -10.3015    0.0000 C   0  0  0  0  0  0  0  0  0  0  0  0
   23.2461  -11.1211    0.0000 C   0  0  0  0  0  0  0  0  0  0  0  0
   23.9542  -11.5300    0.0000 C   0  0  0  0  0  0  0  0  0  0  0  0
   24.6638  -11.1206    0.0000 C   0  0  0  0  0  0  0  0  0  0  0  0
   24.6610  -10.2979    0.0000 C   0  0  0  0  0  0  0  0  0  0  0  0
   23.9524   -9.8927    0.0000 C   0  0  0  0  0  0  0  0  0  0  0  0
   23.9499   -9.0755    0.0000 N   0  0  0  0  0  0  0  0  0  0  0  0
   24.6564   -8.6648    0.0000 N   0  0  0  0  0  0  0  0  0  0  0  0
   24.6540   -7.8476    0.0000 N   0  0  0  0  0  0  0  0  0  0  0  0
   23.9451   -7.4411    0.0000 C   0  0  0  0  0  0  0  0  0  0  0  0
   23.9540  -12.3472    0.0000 C   0  0  0  0  0  0  0  0  0  0  0  0
  1  2  2  0
  2  3  1  0
  3  4  2  0
  4  5  1  0
  5  6  2  0
  6  1  1  0
  6  7  1  0
  7  8  2  0
  8  9  1  0
  9 10  1  0
  3 11  1  0
M  END

> <chembl_id>
CHEMBL3251109

> <chembl_pref_name>
None

$$$$

     RDKit          2D

  8  8  0  0  0  0  0  0  0  0999 V2000
    5.2558   -6.6862    0.0000 S   0  0  0  0  0  0  0  0  0  0  0  0
    6.0628   -6.5146    0.0000 N   0  0  0  0  0  0  0  0  0  0  0  0
    6.4737   -7.2277    0.0000 C   0  0  0  0  0  0  0  0  0  0  0  0
    5.9228   -7.8417    0.0000 C   0  0  0  0  0  0  0  0  0  0  0  0
    5.1712   -7.5054    0.0000 C   0  0  0  0  0  0  0  0  0  0  0  0
    4.4540   -7.9163    0.0000 C   0  0  0  0  0  0  0  0  0  0  0  0
    3.7409   -7.5054    0.0000 N   0  0  0  0  0  0  0  0  0  0  0  0
    3.0278   -7.9163    0.0000 O   0  0  0  0  0  0  0  0  0  0  0  0
  1  2  1  0
  2  3  2  0
  3  4  1  0
  4  5  2  0
  1  5  1  0
  6  7  2  0
  7  8  1  0
  5  6  1  0
M  END

> <chembl_id>
CHEMBL3250344

> <chembl_pref_name>
None

$$$$

     RDKit          2D

  9  9  0  0  0  0  0  0  0  0999 V2000
    3.0500  -10.7102    0.0000 C   0  0  0  0  0  0  0  0  0  0  0  0
    3.8672  -10.7102    0.0000 C   0  0  0  0  0  0  0  0  0  0  0  0
    4.1215   -9.9335    0.0000 C   0  0  0  0  0  0  0  0  0  0  0  0
    3.4586   -9.4514    0.0000 S   0  0  0  0  0  0  0  0  0  0  0  0
    2.7998   -9.9335    0.0000 C   0  0  0  0  0  0  0  0  0  0  0  0
    4.8247   -9.5174    0.0000 C   0  0  0  0  0  0  0  0  0  0  0  0
    5.5368   -9.9184    0.0000 O   0  0  0  0  0  0  0  0  0  0  0  0
    4.8160   -8.7002    0.0000 O   0  0  0  0  0  0  0  0  0  0  0  0
    2.5688  -11.3707    0.0000 C   0  0  0  0  0  0  0  0  0  0  0  0
  1  2  1  0
  2  3  2  0
  3  4  1  0
  4  5  1  0
  5  1  2  0
  3  6  1  0
  6  7  1  0
  6  8  2  0
  1  9  1  0
M  END

> <chembl_id>
CHEMBL4290664

> <chembl_pref_name>
None

$$$$

     RDKit          2D

 11 12  0  0  0  0  0  0  0  0999 V2000
    7.6314    2.0817    0.0000 C   0  0  0  0  0  0  0  0  0  0  0  0
    7.6303    1.2567    0.0000 C   0  0  0  0  0  0  0  0  0  0  0  0
    8.3431    0.8449    0.0000 C   0  0  0  0  0  0  0  0  0  0  0  0
    8.3413    2.4933    0.0000 C   0  0  0  0  0  0  0  0  0  0  0  0
    9.0547    2.0854    0.0000 C   0  0  0  0  0  0  0  0  0  0  0  0
    9.0536    1.2546    0.0000 C   0  0  0  0  0  0  0  0  0  0  0  0
    9.7685    0.8405    0.0000 O   0  0  0  0  0  0  0  0  0  0  0  0
   10.4890    1.2525    0.0000 C   0  0  0  0  0  0  0  0  0  0  0  0
   10.4902    2.0833    0.0000 C   0  0  0  0  0  0  0  0  0  0  0  0
    9.7709    2.5020    0.0000 C   0  0  0  0  0  0  0  0  0  0  0  0
   11.2004    0.8392    0.0000 O   0  0  0  0  0  0  0  0  0  0  0  0
  2  3  1  0
  3  6  2  0
  1  2  2  0
  5  4  2  0
  4  1  1  0
  5 10  1  0
  6  7  1  0
  7  8  1  0
  8  9  1  0
  9 10  1  0
  5  6  1  0
  8 11  2  0
M  END

> <chembl_id>
CHEMBL89306

> <chembl_pref_name>
DIHYDROCOUMARIN

$$$$

     RDKit          2D

  9  9  0  0  0  0  0  0  0  0999 V2000
    5.8162   -4.0328    0.0000 C   0  0  0  0  0  0  0  0  0  0  0  0
    6.6008   -3.7778    0.0000 N   0  0  0  0  0  0  0  0  0  0  0  0
    7.0857   -4.4453    0.0000 C   0  0  0  0  0  0  0  0  0  0  0  0
    6.6008   -5.1127    0.0000 C   0  0  0  0  0  0  0  0  0  0  0  0
    5.8162   -4.8578    0.0000 N   0  0  0  0  0  0  0  0  0  0  0  0
    7.9107   -4.4453    0.0000 C   0  0  0  0  0  0  0  0  0  0  0  0
    8.3468   -3.8030    0.0000 F   0  0  0  0  0  0  0  0  0  0  0  0
    8.7357   -4.4453    0.0000 F   0  0  0  0  0  0  0  0  0  0  0  0
    8.3232   -5.1597    0.0000 F   0  0  0  0  0  0  0  0  0  0  0  0
  1  2  2  0
  2  3  1  0
  3  4  2  0
  4  5  1  0
  1  5  1  0
  6  7  1  0
  6  8  1  0
  6  9  1  0
  3  6  1  0
M  END

> <chembl_id>
CHEMBL2324236

> <chembl_pref_name>
None

$$$$

     RDKit          2D

  9  9  0  0  0  0  0  0  0  0999 V2000
    9.5986    0.2360    0.0000 C   0  0  0  0  0  0  0  0  0  0  0  0
   10.2436    0.7505    0.0000 N   0  0  0  0  0  0  0  0  0  0  0  0
    9.9553    1.5237    0.0000 N   0  0  0  0  0  0  0  0  0  0  0  0
    9.1286    1.4868    0.0000 C   0  0  0  0  0  0  0  0  0  0  0  0
    8.9121    0.6915    0.0000 C   0  0  0  0  0  0  0  0  0  0  0  0
    9.6347   -0.5882    0.0000 C   0  0  0  0  0  0  0  0  0  0  0  0
    8.6130    2.1309    0.0000 N   0  0  0  0  0  0  0  0  0  0  0  0
   10.3814    2.2302    0.0000 C   0  0  0  0  0  0  0  0  0  0  0  0
   11.2063    2.2145    0.0000 C   0  0  0  0  0  0  0  0  0  0  0  0
  4  5  2  0
  5  1  1  0
  1  2  2  0
  1  6  1  0
  4  7  1  0
  2  3  1  0
  3  8  1  0
  3  4  1  0
  8  9  1  0
M  END

> <chembl_id>
CHEMBL1650236

> <chembl_pref_name>
None

$$$$

     RDKit          2D

 10 10  0  0  0  0  0  0  0  0999 V2000
    7.7051   -9.3435    0.0000 O   0  0  0  0  0  0  0  0  0  0  0  0
    4.1269   -8.9367    0.0000 C   0  0  0  0  0  0  0  0  0  0  0  0
    4.1280   -8.1091    0.0000 C   0  0  0  0  0  0  0  0  0  0  0  0
    6.2673   -7.6879    0.0000 O   0  0  0  0  0  0  0  0  0  0  0  0
    5.5547   -8.1054    0.0000 C   0  0  0  0  0  0  0  0  0  0  0  0
    6.9861   -8.9340    0.0000 N   0  0  0  0  0  0  0  0  0  0  0  0
    5.5577   -8.9362    0.0000 C   0  0  0  0  0  0  0  0  0  0  0  0
    6.2725   -9.3457    0.0000 C   0  0  0  0  0  0  0  0  0  0  0  0
    4.8414   -9.3478    0.0000 N   0  0  0  0  0  0  0  0  0  0  0  0
    4.8396   -7.6940    0.0000 C   0  0  0  0  0  0  0  0  0  0  0  0
  7  5  1  0
  8  6  2  0
  5  4  1  0
  5 10  2  0
  2  9  1  0
  6  1  1  0
  7  8  1  0
 10  3  1  0
  9  7  2  0
  3  2  2  0
M  END

> <chembl_id>
CHEMBL3234595

> <chembl_pref_name>
None

$$$$

     RDKit          2D

 10  9  0  0  0  0  0  0  0  0999 V2000
    5.5750   -5.4542    0.0000 Na  0  0  0  0  0 15  0  0  0  0  0  0
    8.4083   -4.5333    0.0000 N   0  0  0  0  0  0  0  0  0  0  0  0
    9.1250   -4.1208    0.0000 N   0  0  0  0  0  0  0  0  0  0  0  0
    8.4083   -5.3583    0.0000 C   0  0  0  0  0  0  0  0  0  0  0  0
    7.6958   -5.7708    0.0000 N   0  0  0  0  0  0  0  0  0  0  0  0
    9.1250   -6.5958    0.0000 N   0  0  0  0  0  0  0  0  0  0  0  0
    9.1250   -3.2958    0.0000 O   0  0  0  0  0  0  0  0  0  0  0  0
    9.1250   -5.7708    0.0000 C   0  0  0  0  0  0  0  0  0  0  0  0
    7.6958   -6.5958    0.0000 C   0  0  0  0  0  0  0  0  0  0  0  0
    8.4083   -7.0083    0.0000 C   0  0  0  0  0  0  0  0  0  0  0  0
  3  2  2  0
  4  2  1  0
  5  4  2  0
  6  8  2  0
  7  3  1  0
  8  4  1  0
  9  5  1  0
 10  6  1  0
 10  9  2  0
M  CHG  2   1   1   7  -1
M  END

> <chembl_id>
CHEMBL2079811

> <chembl_pref_name>
None

$$$$

     RDKit          2D

  8  8  0  0  0  0  0  0  0  0999 V2000
   -0.7083   -0.2375    0.0000 N   0  0  0  0  0  0  0  0  0  0  0  0
    0.5417    0.4708    0.0000 C   0  0  0  0  0  0  0  0  0  0  0  0
    1.8167   -0.2417    0.0000 S   0  0  0  0  0  0  0  0  0  0  0  0
   -0.7083   -1.6625    0.0000 O   0  0  0  0  0  0  0  0  0  0  0  0
   -1.9208    0.4958    0.0000 C   0  0  0  0  0  0  0  0  0  0  0  0
    0.5417    1.9000    0.0000 C   0  0  0  0  0  0  0  0  0  0  0  0
   -1.9208    1.9208    0.0000 C   0  0  0  0  0  0  0  0  0  0  0  0
   -0.6583    2.6458    0.0000 C   0  0  0  0  0  0  0  0  0  0  0  0
  2  1  1  0
  3  2  2  0
  4  1  1  0
  5  1  1  0
  6  2  1  0
  7  5  2  0
  8  7  1  0
  6  8  2  0
M  END

> <chembl_id>
CHEMBL1650619

> <chembl_pref_name>
PYRITHIONE

$$$$

     RDKit          2D

 11 12  0  0  1  0  0  0  0  0999 V2000
    2.6346   -2.2463    0.0000 C   0  0  0  0  0  0  0  0  0  0  0  0
    1.8079   -2.2463    0.0000 C   0  0  0  0  0  0  0  0  0  0  0  0
    2.2213   -1.5324    0.0000 C   0  0  0  0  0  0  0  0  0  0  0  0
    3.3486   -2.6597    0.0000 C   0  0  0  0  0  0  0  0  0  0  0  0
    1.0940   -2.6597    0.0000 C   0  0  0  0  0  0  0  0  0  0  0  0
    3.3486   -3.4864    0.0000 O   0  0  0  0  0  0  0  0  0  0  0  0
    1.0940   -3.4822    0.0000 C   0  0  0  0  0  0  0  0  0  0  0  0
    0.3800   -2.2463    0.0000 C   0  0  0  0  0  0  0  0  0  0  0  0
   -0.3340   -2.6555    0.0000 C   0  0  0  0  0  0  0  0  0  0  0  0
    0.3800   -3.8998    0.0000 C   0  0  0  0  0  0  0  0  0  0  0  0
   -0.3340   -3.4864    0.0000 C   0  0  0  0  0  0  0  0  0  0  0  0
  2  1  1  0
  3  1  1  0
  1  4  1  6
  2  5  1  1
  6  4  1  0
  7  5  1  0
  8  5  2  0
  9  8  1  0
 10  7  2  0
 11  9  2  0
  3  2  1  0
 10 11  1  0
M  END

> <chembl_id>
CHEMBL113340

> <chembl_pref_name>
None

$$$$

     RDKit          2D

  9  9  0  0  0  0  0  0  0  0999 V2000
   26.5018   -3.1466    0.0000 N   0  0  0  0  0  0  0  0  0  0  0  0
   27.1659   -3.6199    0.0000 N   0  0  0  0  0  0  0  0  0  0  0  0
   27.8209   -3.1353    0.0000 C   0  0  0  0  0  0  0  0  0  0  0  0
   27.5623   -2.3612    0.0000 C   0  0  0  0  0  0  0  0  0  0  0  0
   26.7468   -2.3688    0.0000 C   0  0  0  0  0  0  0  0  0  0  0  0
   27.1734   -4.4370    0.0000 C   0  0  0  0  0  0  0  0  0  0  0  0
   28.5426   -3.5261    0.0000 C   0  0  0  0  0  0  0  0  0  0  0  0
   29.2389   -3.0984    0.0000 O   0  0  0  0  0  0  0  0  0  0  0  0
   26.2604   -1.7121    0.0000 Cl  0  0  0  0  0  0  0  0  0  0  0  0
  1  2  1  0
  2  3  1  0
  3  4  2  0
  4  5  1  0
  5  1  2  0
  2  6  1  0
  7  8  2  0
  3  7  1  0
  5  9  1  0
M  END

> <chembl_id>
CHEMBL2287217

> <chembl_pref_name>
None

$$$$

     RDKit          2D

  8  8  0  0  0  0  0  0  0  0999 V2000
    1.8167   -4.1667    0.0000 N   0  0  0  0  0  0  0  0  0  0  0  0
    3.0542   -4.1667    0.0000 N   0  0  0  0  0  0  0  0  0  0  0  0
    2.4292   -3.0875    0.0000 C   0  0  0  0  0  0  0  0  0  0  0  0
    3.0542   -3.4500    0.0000 C   0  0  0  0  0  0  0  0  0  0  0  0
    1.8167   -3.4500    0.0000 C   0  0  0  0  0  0  0  0  0  0  0  0
    2.4292   -2.3625    0.0000 C   0  0  0  0  0  0  0  0  0  0  0  0
    3.0542   -2.0000    0.0000 C   0  0  0  0  0  0  0  0  0  0  0  0
    3.0542   -1.2792    0.0000 C   0  0  0  0  0  0  0  0  0  0  0  0
  2  1  1  0
  3  5  1  0
  4  2  1  0
  5  1  2  0
  6  3  1  0
  7  6  1  0
  8  7  1  0
  3  4  2  0
M  END

> <chembl_id>
CHEMBL351768

> <chembl_pref_name>
None

$$$$

     RDKit          2D

  9  9  0  0  0  0  0  0  0  0999 V2000
    4.1014   -7.8314    0.0000 N   0  0  0  0  0  0  0  0  0  0  0  0
    4.5118   -8.5479    0.0000 N   0  0  0  0  0  0  0  0  0  0  0  0
    3.2764   -7.8314    0.0000 C   0  0  0  0  0  0  0  0  0  0  0  0
    2.8660   -8.5479    0.0000 C   0  0  0  0  0  0  0  0  0  0  0  0
    2.0410   -8.5479    0.0000 C   0  0  0  0  0  0  0  0  0  0  0  0
    1.6305   -7.8314    0.0000 C   0  0  0  0  0  0  0  0  0  0  0  0
    2.0410   -7.1191    0.0000 C   0  0  0  0  0  0  0  0  0  0  0  0
    2.8660   -7.1191    0.0000 C   0  0  0  0  0  0  0  0  0  0  0  0
    0.8054   -7.8314    0.0000 F   0  0  0  0  0  0  0  0  0  0  0  0
  1  2  1  0
  3  4  1  0
  4  5  2  0
  5  6  1  0
  6  7  2  0
  7  8  1  0
  3  8  2  0
  6  9  1  0
  1  3  1  0
M  END

> <chembl_id>
CHEMBL3884307

> <chembl_pref_name>
None

$$$$

     RDKit          2D

  9  9  0  0  0  0  0  0  0  0999 V2000
    6.2667    0.8083    0.0000 C   0  0  0  0  0  0  0  0  0  0  0  0
    6.2667   -0.0167    0.0000 C   0  0  0  0  0  0  0  0  0  0  0  0
    5.5542    1.2208    0.0000 C   0  0  0  0  0  0  0  0  0  0  0  0
    5.5542   -0.4292    0.0000 N   0  0  0  0  0  0  0  0  0  0  0  0
    4.8417    0.8083    0.0000 C   0  0  0  0  0  0  0  0  0  0  0  0
    4.8417   -0.0167    0.0000 C   0  0  0  0  0  0  0  0  0  0  0  0
    6.9875   -0.4292    0.0000 O   0  0  0  0  0  0  0  0  0  0  0  0
    6.9792    1.2250    0.0000 F   0  0  0  0  0  0  0  0  0  0  0  0
    5.5500    2.0458    0.0000 N   0  0  0  0  0  0  0  0  0  0  0  0
  2  1  1  0
  3  1  2  0
  4  2  2  0
  5  3  1  0
  6  5  2  0
  7  2  1  0
  8  1  1  0
  9  3  1  0
  6  4  1  0
M  END

> <chembl_id>
CHEMBL115639

> <chembl_pref_name>
None

$$$$

     RDKit          2D

  9  9  0  0  0  0  0  0  0  0999 V2000
   -1.4522    1.7337    0.0000 N   0  0  0  0  0  0  0  0  0  0  0  0
   -1.4522    0.9087    0.0000 C   0  0  0  0  0  0  0  0  0  0  0  0
   -0.7377    0.4962    0.0000 C   0  0  0  0  0  0  0  0  0  0  0  0
   -0.7377   -0.3288    0.0000 C   0  0  0  0  0  0  0  0  0  0  0  0
   -1.4522   -0.7413    0.0000 C   0  0  0  0  0  0  0  0  0  0  0  0
   -2.1667   -0.3288    0.0000 C   0  0  0  0  0  0  0  0  0  0  0  0
   -2.1667    0.4962    0.0000 C   0  0  0  0  0  0  0  0  0  0  0  0
   -2.8811    0.9087    0.0000 C   0  0  0  0  0  0  0  0  0  0  0  0
   -0.0232   -0.7413    0.0000 Cl  0  0  0  0  0  0  0  0  0  0  0  0
  1  2  1  0
  2  3  2  0
  3  4  1  0
  4  5  2  0
  5  6  1  0
  6  7  2  0
  2  7  1  0
  7  8  1  0
  4  9  1  0
M  END

> <chembl_id>
CHEMBL553181

> <chembl_pref_name>
None

$$$$

     RDKit          2D

  9  9  0  0  0  0  0  0  0  0999 V2000
    3.7542   -1.0167    0.0000 C   0  0  0  0  0  0  0  0  0  0  0  0
    4.0542   -0.4917    0.0000 C   0  0  0  0  0  0  0  0  0  0  0  0
    3.1500   -1.0250    0.0000 C   0  0  0  0  0  0  0  0  0  0  0  0
    1.9542   -1.0542    0.0000 C   0  0  0  0  0  0  0  0  0  0  0  0
    2.8292   -0.5042    0.0000 C   0  0  0  0  0  0  0  0  0  0  0  0
    2.8667   -1.5417    0.0000 C   0  0  0  0  0  0  0  0  0  0  0  0
    2.2292   -0.5250    0.0000 C   0  0  0  0  0  0  0  0  0  0  0  0
    2.2667   -1.5625    0.0000 C   0  0  0  0  0  0  0  0  0  0  0  0
    1.3500   -1.0667    0.0000 O   0  0  0  0  0  0  0  0  0  0  0  0
  2  1  2  0
  3  1  1  0
  4  8  1  0
  5  3  2  0
  6  3  1  0
  7  5  1  0
  8  6  2  0
  9  4  1  0
  7  4  2  0
M  END

> <chembl_id>
CHEMBL349881

> <chembl_pref_name>
4-VINYLPHENOL

$$$$

     RDKit          2D

  9  9  0  0  0  0  0  0  0  0999 V2000
    4.7875   -2.9750    0.0000 N   0  0  0  0  0  0  0  0  0  0  0  0
    4.1167   -3.4667    0.0000 C   0  0  0  0  0  0  0  0  0  0  0  0
    5.5417   -3.3042    0.0000 O   0  0  0  0  0  0  0  0  0  0  0  0
    3.3542   -3.1292    0.0000 C   0  0  0  0  0  0  0  0  0  0  0  0
    3.2667   -2.3042    0.0000 C   0  0  0  0  0  0  0  0  0  0  0  0
    2.6875   -3.6125    0.0000 C   0  0  0  0  0  0  0  0  0  0  0  0
    2.5042   -1.9667    0.0000 C   0  0  0  0  0  0  0  0  0  0  0  0
    1.9292   -3.2750    0.0000 C   0  0  0  0  0  0  0  0  0  0  0  0
    1.8417   -2.4542    0.0000 C   0  0  0  0  0  0  0  0  0  0  0  0
  2  1  2  0
  3  1  1  0
  4  2  1  0
  5  4  2  0
  6  4  1  0
  7  5  1  0
  8  6  2  0
  9  8  1  0
  9  7  2  0
M  END

> <chembl_id>
CHEMBL135583

> <chembl_pref_name>
BENZALDEHYDE OXIME

$$$$

     RDKit          2D

 11 11  0  0  0  0  0  0  0  0999 V2000
   32.9923   -9.2785    0.0000 C   0  0  0  0  0  0  0  0  0  0  0  0
   32.9912  -10.1058    0.0000 C   0  0  0  0  0  0  0  0  0  0  0  0
   33.7059  -10.5187    0.0000 C   0  0  0  0  0  0  0  0  0  0  0  0
   34.4224  -10.1054    0.0000 N   0  0  0  0  0  0  0  0  0  0  0  0
   34.4194   -9.2749    0.0000 C   0  0  0  0  0  0  0  0  0  0  0  0
   33.7041   -8.8658    0.0000 C   0  0  0  0  0  0  0  0  0  0  0  0
   35.1323   -8.8597    0.0000 C   0  0  0  0  0  0  0  0  0  0  0  0
   35.8483   -9.2696    0.0000 C   0  0  0  0  0  0  0  0  0  0  0  0
   36.5612   -8.8544    0.0000 N   0  0  0  0  0  0  0  0  0  0  0  0
   37.2727   -8.4369    0.0000 N   0  0  0  0  0  0  0  0  0  0  0  0
   37.9851   -8.0203    0.0000 N   0  0  0  0  0  0  0  0  0  0  0  0
  1  2  2  0
  2  3  1  0
  3  4  2  0
  4  5  1  0
  5  6  2  0
  6  1  1  0
  5  7  1  0
  7  8  1  0
  8  9  1  0
  9 10  2  0
 10 11  2  0
M  CHG  2  10   1  11  -1
M  END

> <chembl_id>
CHEMBL3236144

> <chembl_pref_name>
None

$$$$

     RDKit          2D

 10 10  0  0  0  0  0  0  0  0999 V2000
    0.7285   -0.4870    0.0000 N   0  0  0  0  0  0  0  0  0  0  0  0
   -0.7004   -0.4870    0.0000 N   0  0  0  0  0  0  0  0  0  0  0  0
    0.0140   -1.7245    0.0000 N   0  0  0  0  0  0  0  0  0  0  0  0
   -0.7004   -2.1370    0.0000 N   0  0  0  0  0  0  0  0  0  0  0  0
    0.0140    2.4005    0.0000 N   0  0  0  0  0  0  0  0  0  0  0  0
    0.0140   -0.8995    0.0000 C   0  0  0  0  0  0  0  0  0  0  0  0
    0.0140    0.7505    0.0000 C   0  0  0  0  0  0  0  0  0  0  0  0
    0.7285    0.3380    0.0000 C   0  0  0  0  0  0  0  0  0  0  0  0
   -0.7004    0.3380    0.0000 C   0  0  0  0  0  0  0  0  0  0  0  0
    0.0140    1.5755    0.0000 C   0  0  0  0  0  0  0  0  0  0  0  0
  1  6  2  0
  1  8  1  0
  2  6  1  0
  2  9  2  0
  3  4  1  0
  3  6  1  0
  5 10  3  0
  7  8  2  0
  7  9  1  0
  7 10  1  0
M  END

> <chembl_id>
CHEMBL1419451

> <chembl_pref_name>
None

$$$$

     RDKit          2D

 10 11  0  0  0  0  0  0  0  0999 V2000
   -0.7145   -0.8250    0.0000 N   0  0  0  0  0  0  0  0  0  0  0  0
   -1.4289   -0.4125    0.0000 C   0  0  0  0  0  0  0  0  0  0  0  0
   -1.4289    0.4125    0.0000 N   0  0  0  0  0  0  0  0  0  0  0  0
   -0.7145    0.8250    0.0000 C   0  0  0  0  0  0  0  0  0  0  0  0
   -0.0000    0.4125    0.0000 C   0  0  0  0  0  0  0  0  0  0  0  0
    0.7145    0.8250    0.0000 C   0  0  0  0  0  0  0  0  0  0  0  0
    1.4289    0.4125    0.0000 C   0  0  0  0  0  0  0  0  0  0  0  0
    1.4289   -0.4125    0.0000 C   0  0  0  0  0  0  0  0  0  0  0  0
    0.7145   -0.8250    0.0000 C   0  0  0  0  0  0  0  0  0  0  0  0
    0.0000   -0.4125    0.0000 C   0  0  0  0  0  0  0  0  0  0  0  0
  1  2  2  0
  2  3  1  0
  3  4  1  0
  4  5  1  0
  5  6  1  0
  6  7  2  0
  7  8  1  0
  8  9  2  0
  9 10  1  0
  1 10  1  0
  5 10  2  0
M  END

> <chembl_id>
CHEMBL539405

> <chembl_pref_name>
None

$$$$

     RDKit          2D

  9  8  0  0  0  0  0  0  0  0999 V2000
    5.5542   -2.3292    0.0000 Cl  0  0  0  0  0  0  0  0  0  0  0  0
    4.0917   -2.0250    0.0000 N   0  0  0  0  0  0  0  0  0  0  0  0
    3.5750   -1.7292    0.0000 C   0  0  0  0  0  0  0  0  0  0  0  0
    3.0542   -2.0292    0.0000 C   0  0  0  0  0  0  0  0  0  0  0  0
    2.5417   -1.7292    0.0000 C   0  0  0  0  0  0  0  0  0  0  0  0
    3.0542   -2.6292    0.0000 C   0  0  0  0  0  0  0  0  0  0  0  0
    2.0250   -2.0292    0.0000 C   0  0  0  0  0  0  0  0  0  0  0  0
    2.5417   -2.9292    0.0000 C   0  0  0  0  0  0  0  0  0  0  0  0
    2.0250   -2.6292    0.0000 C   0  0  0  0  0  0  0  0  0  0  0  0
  3  2  1  0
  4  3  1  0
  5  4  2  0
  6  4  1  0
  7  5  1  0
  8  6  2  0
  9  7  2  0
  8  9  1  0
M  END

> <chembl_id>
CHEMBL14186

> <chembl_pref_name>
None

$$$$

     RDKit          2D

 10 11  0  0  0  0  0  0  0  0999 V2000
   -1.2875   -0.9167    0.0000 N   0  0  0  0  0  0  0  0  0  0  0  0
   -1.7833   -0.2500    0.0000 C   0  0  0  0  0  0  0  0  0  0  0  0
   -2.5708   -0.5125    0.0000 C   0  0  0  0  0  0  0  0  0  0  0  0
   -1.7708   -1.5917    0.0000 C   0  0  0  0  0  0  0  0  0  0  0  0
   -2.5625   -1.3417    0.0000 C   0  0  0  0  0  0  0  0  0  0  0  0
   -1.5333    0.5375    0.0000 O   0  0  0  0  0  0  0  0  0  0  0  0
   -3.2833   -0.0917    0.0000 C   0  0  0  0  0  0  0  0  0  0  0  0
   -3.2833   -1.7542    0.0000 C   0  0  0  0  0  0  0  0  0  0  0  0
   -3.9958   -0.5125    0.0000 C   0  0  0  0  0  0  0  0  0  0  0  0
   -3.9958   -1.3417    0.0000 C   0  0  0  0  0  0  0  0  0  0  0  0
  2  1  1  0
  3  2  1  0
  4  1  2  0
  5  4  1  0
  6  2  2  0
  7  3  1  0
  8  5  1  0
  9  7  2  0
 10  8  2  0
  5  3  2  0
 10  9  1  0
M  END

> <chembl_id>
CHEMBL352926

> <chembl_pref_name>
None

$$$$

     RDKit          2D

 10 10  0  0  0  0  0  0  0  0999 V2000
   37.4876   -3.3056    0.0000 C   0  0  0  0  0  0  0  0  0  0  0  0
   38.3048   -3.3059    0.0000 C   0  0  0  0  0  0  0  0  0  0  0  0
   38.5591   -2.5292    0.0000 N   0  0  0  0  0  0  0  0  0  0  0  0
   37.8962   -2.0471    0.0000 N   0  0  0  0  0  0  0  0  0  0  0  0
   37.2374   -2.5292    0.0000 C   0  0  0  0  0  0  0  0  0  0  0  0
   37.8949   -1.2299    0.0000 O   0  0  0  0  0  0  0  0  0  0  0  0
   37.0695   -4.0077    0.0000 C   0  0  0  0  0  0  0  0  0  0  0  0
   36.2524   -3.9967    0.0000 N   0  0  0  0  0  0  0  0  0  0  0  0
   36.4601   -2.2771    0.0000 C   0  0  0  0  0  0  0  0  0  0  0  0
   38.7842   -3.9677    0.0000 C   0  0  0  0  0  0  0  0  0  0  0  0
  1  2  1  0
  2  3  2  0
  3  4  1  0
  4  5  1  0
  5  1  2  0
  4  6  1  0
  1  7  1  0
  7  8  1  0
  5  9  1  0
  2 10  1  0
M  END

> <chembl_id>
CHEMBL2315217

> <chembl_pref_name>
None

$$$$

     RDKit          2D

  9  9  0  0  0  0  0  0  0  0999 V2000
    6.4384   -7.1728    0.0000 C   0  0  0  0  0  0  0  0  0  0  0  0
    7.2556   -7.1732    0.0000 C   0  0  0  0  0  0  0  0  0  0  0  0
    7.5100   -6.3964    0.0000 N   0  0  0  0  0  0  0  0  0  0  0  0
    6.8470   -5.9143    0.0000 N   0  0  0  0  0  0  0  0  0  0  0  0
    6.1883   -6.3964    0.0000 C   0  0  0  0  0  0  0  0  0  0  0  0
    6.8458   -5.0971    0.0000 O   0  0  0  0  0  0  0  0  0  0  0  0
    6.0203   -7.8749    0.0000 C   0  0  0  0  0  0  0  0  0  0  0  0
    5.2032   -7.8639    0.0000 N   0  0  0  0  0  0  0  0  0  0  0  0
    7.7350   -7.8349    0.0000 C   0  0  0  0  0  0  0  0  0  0  0  0
  1  2  1  0
  2  3  2  0
  3  4  1  0
  4  5  1  0
  5  1  2  0
  4  6  1  0
  1  7  1  0
  7  8  1  0
  2  9  1  0
M  END

> <chembl_id>
CHEMBL2315219

> <chembl_pref_name>
None

$$$$

     RDKit          2D

  9  9  0  0  0  0  0  0  0  0999 V2000
    4.8750   -3.0167    0.0000 N   0  0  0  0  0  0  0  0  0  0  0  0
    5.3875   -2.7167    0.0000 C   0  0  0  0  0  0  0  0  0  0  0  0
    5.9042   -3.6167    0.0000 N   0  0  0  0  0  0  0  0  0  0  0  0
    4.8750   -3.6167    0.0000 C   0  0  0  0  0  0  0  0  0  0  0  0
    5.9042   -3.0167    0.0000 N   0  0  0  0  0  0  0  0  0  0  0  0
    5.3875   -3.9167    0.0000 C   0  0  0  0  0  0  0  0  0  0  0  0
    5.3792   -2.1167    0.0000 N   0  0  0  0  0  0  0  0  0  0  0  0
    4.3500   -3.9167    0.0000 O   0  0  0  0  0  0  0  0  0  0  0  0
    4.8625   -1.8167    0.0000 N   0  0  0  0  0  0  0  0  0  0  0  0
  2  1  2  0
  3  6  1  0
  4  1  1  0
  5  2  1  0
  6  4  2  0
  7  2  1  0
  8  4  1  0
  9  7  1  0
  3  5  2  0
M  END

> <chembl_id>
CHEMBL21890

> <chembl_pref_name>
None

$$$$

     RDKit          2D

  9  9  0  0  0  0  0  0  0  0999 V2000
   -4.2333  -10.7917    0.0000 N   0  0  0  0  0  0  0  0  0  0  0  0
   -4.2333  -11.6167    0.0000 C   0  0  0  0  0  0  0  0  0  0  0  0
   -3.5213  -12.0250    0.0000 N   0  0  0  0  0  0  0  0  0  0  0  0
   -2.8093  -11.6167    0.0000 C   0  0  0  0  0  0  0  0  0  0  0  0
   -2.8093  -10.7917    0.0000 C   0  0  0  0  0  0  0  0  0  0  0  0
   -3.5213  -10.3750    0.0000 C   0  0  0  0  0  0  0  0  0  0  0  0
   -2.0936  -10.3813    0.0000 Cl  0  0  0  0  0  0  0  0  0  0  0  0
   -2.0954  -12.0302    0.0000 C   0  0  0  0  0  0  0  0  0  0  0  0
   -3.5213   -9.5500    0.0000 O   0  0  0  0  0  0  0  0  0  0  0  0
  2  3  2  0
  3  4  1  0
  4  5  2  0
  5  6  1  0
  5  7  1  0
  1  2  1  0
  4  8  1  0
  1  6  1  0
  6  9  2  0
M  END

> <chembl_id>
CHEMBL472375

> <chembl_pref_name>
None

$$$$

     RDKit          2D

 10 10  0  0  0  0  0  0  0  0999 V2000
    4.4042    0.3208    0.0000 N   0  0  0  0  0  0  0  0  0  0  0  0
    5.1542   -0.0042    0.0000 C   0  0  0  0  0  0  0  0  0  0  0  0
    3.7542   -0.0792    0.0000 C   0  0  0  0  0  0  0  0  0  0  0  0
    3.0542    0.3583    0.0000 N   0  0  0  0  0  0  0  0  0  0  0  0
    2.3292   -0.0417    0.0000 N   0  0  0  0  0  0  0  0  0  0  0  0
    5.8542    0.4500    0.0000 N   0  0  0  0  0  0  0  0  0  0  0  0
    5.2042   -0.8250    0.0000 N   0  0  0  0  0  0  0  0  0  0  0  0
    2.3125   -0.8667    0.0000 C   0  0  0  0  0  0  0  0  0  0  0  0
    3.7375   -0.9042    0.0000 C   0  0  0  0  0  0  0  0  0  0  0  0
    3.0125   -1.2917    0.0000 C   0  0  0  0  0  0  0  0  0  0  0  0
  2  1  1  0
  3  1  1  0
  4  3  2  0
  5  4  1  0
  6  2  2  0
  7  2  1  0
  8 10  1  0
  9  3  1  0
 10  9  2  0
  8  5  2  0
M  END

> <chembl_id>
CHEMBL53096

> <chembl_pref_name>
None

$$$$

     RDKit          2D

 10 11  0  0  0  0  0  0  0  0999 V2000
   16.9795  -13.3271    0.0000 C   0  0  0  0  0  0  0  0  0  0  0  0
   17.2380  -12.5379    0.0000 N   0  0  0  0  0  0  0  0  0  0  0  0
   16.5643  -12.0479    0.0000 N   0  0  0  0  0  0  0  0  0  0  0  0
   16.5631  -11.2176    0.0000 O   0  0  0  0  0  0  0  0  0  0  0  0
   16.1492  -13.3267    0.0000 C   0  0  0  0  0  0  0  0  0  0  0  0
   15.8978  -12.5408    0.0000 C   0  0  0  0  0  0  0  0  0  0  0  0
   15.0961  -12.3666    0.0000 C   0  0  0  0  0  0  0  0  0  0  0  0
   14.5399  -12.9752    0.0000 C   0  0  0  0  0  0  0  0  0  0  0  0
   14.7913  -13.7609    0.0000 N   0  0  0  0  0  0  0  0  0  0  0  0
   15.5988  -13.9382    0.0000 C   0  0  0  0  0  0  0  0  0  0  0  0
  5  1  1  0
  1  2  2  0
  2  3  1  0
  3  6  1  0
  3  4  1  0
  5  6  2  0
  5 10  1  0
  6  7  1  0
  7  8  1  0
  8  9  1  0
  9 10  1  0
M  END

> <chembl_id>
CHEMBL2315227

> <chembl_pref_name>
None

$$$$

     RDKit          2D

  9  9  0  0  0  0  0  0  0  0999 V2000
    0.0000    0.0000    0.0000 O   0  0  0  0  0  0  0  0  0  0  0  0
    0.0000   -1.6499    0.0000 N   0  0  0  0  0  0  0  0  0  0  0  0
    2.8595   -1.6499    0.0000 N   0  0  0  0  0  0  0  0  0  0  0  0
    0.7149   -1.2381    0.0000 C   0  0  0  0  0  0  0  0  0  0  0  0
    0.7149   -0.4146    0.0000 C   0  0  0  0  0  0  0  0  0  0  0  0
    2.1446   -1.2381    0.0000 C   0  0  0  0  0  0  0  0  0  0  0  0
    1.4297   -1.6499    0.0000 C   0  0  0  0  0  0  0  0  0  0  0  0
    1.4297    0.0000    0.0000 C   0  0  0  0  0  0  0  0  0  0  0  0
    2.1446   -0.4146    0.0000 C   0  0  0  0  0  0  0  0  0  0  0  0
  1  5  1  0
  2  4  1  0
  3  6  1  0
  4  5  1  0
  4  7  2  0
  5  8  2  0
  6  7  1  0
  6  9  2  0
  8  9  1  0
M  END

> <chembl_id>
CHEMBL2924225

> <chembl_pref_name>
2,4-DIAMINOPHENOL

$$$$

     RDKit          2D

 10 10  0  0  0  0  0  0  0  0999 V2000
    5.4875   -5.0417    0.0000 C   0  0  0  0  0  0  0  0  0  0  0  0
    4.7750   -4.6292    0.0000 N   0  0  0  0  0  0  0  0  0  0  0  0
    5.4875   -5.8667    0.0000 C   0  0  0  0  0  0  0  0  0  0  0  0
    4.7750   -6.2792    0.0000 N   0  0  0  0  0  0  0  0  0  0  0  0
    6.2042   -4.6292    0.0000 O   0  0  0  0  0  0  0  0  0  0  0  0
    4.0667   -5.0417    0.0000 C   0  0  0  0  0  0  0  0  0  0  0  0
    4.0667   -5.8667    0.0000 C   0  0  0  0  0  0  0  0  0  0  0  0
    6.2042   -6.2792    0.0000 C   0  0  0  0  0  0  0  0  0  0  0  0
    6.9167   -5.0417    0.0000 C   0  0  0  0  0  0  0  0  0  0  0  0
    6.9167   -5.8667    0.0000 C   0  0  0  0  0  0  0  0  0  0  0  0
  2  1  2  0
  3  1  1  0
  4  3  2  0
  5  1  1  0
  6  2  1  0
  7  4  1  0
  8  3  1  0
  9  5  1  0
 10  8  1  0
  6  7  2  0
M  END

> <chembl_id>
CHEMBL328465

> <chembl_pref_name>
None

$$$$

     RDKit          2D

 10 10  0  0  0  0  0  0  0  0999 V2000
    7.9611  -16.1041    0.0000 C   0  0  0  0  0  0  0  0  0  0  0  0
    7.9599  -16.9315    0.0000 C   0  0  0  0  0  0  0  0  0  0  0  0
    8.6747  -17.3444    0.0000 C   0  0  0  0  0  0  0  0  0  0  0  0
    9.3912  -16.9310    0.0000 C   0  0  0  0  0  0  0  0  0  0  0  0
    9.3883  -16.1005    0.0000 C   0  0  0  0  0  0  0  0  0  0  0  0
    8.6729  -15.6914    0.0000 C   0  0  0  0  0  0  0  0  0  0  0  0
   10.1012  -15.6853    0.0000 C   0  0  0  0  0  0  0  0  0  0  0  0
   10.8172  -16.0951    0.0000 C   0  0  0  0  0  0  0  0  0  0  0  0
    8.6745  -18.1694    0.0000 O   0  0  0  0  0  0  0  0  0  0  0  0
    7.2451  -17.3434    0.0000 O   0  0  0  0  0  0  0  0  0  0  0  0
  2  3  1  0
  5  6  2  0
  6  1  1  0
  1  2  2  0
  5  7  1  0
  3  4  2  0
  7  8  1  0
  3  9  1  0
  4  5  1  0
  2 10  1  0
M  END

> <chembl_id>
CHEMBL1276241

> <chembl_pref_name>
None

$$$$

     RDKit          2D

 10 10  0  0  0  0  0  0  0  0999 V2000
   -2.1083   -0.7917    0.0000 N   0  0  0  0  0  0  0  0  0  0  0  0
   -2.8208   -1.2042    0.0000 C   0  0  0  0  0  0  0  0  0  0  0  0
   -2.1083    0.0375    0.0000 C   0  0  0  0  0  0  0  0  0  0  0  0
   -3.5333    0.0375    0.0000 C   0  0  0  0  0  0  0  0  0  0  0  0
   -3.5333   -0.7917    0.0000 C   0  0  0  0  0  0  0  0  0  0  0  0
   -2.8125   -2.0292    0.0000 N   0  0  0  0  0  0  0  0  0  0  0  0
   -2.8208    0.4500    0.0000 C   0  0  0  0  0  0  0  0  0  0  0  0
   -1.3958    0.4583    0.0000 C   0  0  0  0  0  0  0  0  0  0  0  0
   -4.2458    0.4458    0.0000 C   0  0  0  0  0  0  0  0  0  0  0  0
   -2.1000   -2.4417    0.0000 C   0  0  0  0  0  0  0  0  0  0  0  0
  2  1  2  0
  3  1  1  0
  4  7  1  0
  5  2  1  0
  6  2  1  0
  7  3  2  0
  8  3  1  0
  9  4  1  0
 10  6  1  0
  4  5  2  0
M  END

> <chembl_id>
CHEMBL112139

> <chembl_pref_name>
None

$$$$

     RDKit          2D

 10 10  0  0  0  0  0  0  0  0999 V2000
    4.7316   -9.7748    0.0000 C   0  0  0  0  0  0  0  0  0  0  0  0
    2.6053   -9.3315    0.0000 C   0  0  0  0  0  0  0  0  0  0  0  0
    3.3238   -9.7431    0.0000 C   0  0  0  0  0  0  0  0  0  0  0  0
    4.0382   -9.3315    0.0000 C   0  0  0  0  0  0  0  0  0  0  0  0
    2.6053   -8.5041    0.0000 O   0  0  0  0  0  0  0  0  0  0  0  0
    1.8908   -9.7431    0.0000 O   0  0  0  0  0  0  0  0  0  0  0  0
    4.7414  -10.6003    0.0000 O   0  0  0  0  0  0  0  0  0  0  0  0
    5.5273  -10.8466    0.0000 C   0  0  0  0  0  0  0  0  0  0  0  0
    6.0073  -10.1792    0.0000 C   0  0  0  0  0  0  0  0  0  0  0  0
    5.5156   -9.5162    0.0000 C   0  0  0  0  0  0  0  0  0  0  0  0
  2  6  2  0
  4  1  1  0
  9 10  1  0
  7  8  1  0
  2  3  1  0
  3  4  2  0
  2  5  1  0
  1  7  1  0
  8  9  2  0
 10  1  2  0
M  END

> <chembl_id>
CHEMBL1771761

> <chembl_pref_name>
None

$$$$

     RDKit          2D

  9  9  0  0  0  0  0  0  0  0999 V2000
   10.7726   -5.6238    0.0000 C   0  0  0  0  0  0  0  0  0  0  0  0
    9.9879   -5.3691    0.0000 C   0  0  0  0  0  0  0  0  0  0  0  0
    9.3202   -5.8544    0.0000 S   0  0  0  0  0  0  0  0  0  0  0  0
    9.7332   -4.5844    0.0000 C   0  0  0  0  0  0  0  0  0  0  0  0
   11.3853   -5.0731    0.0000 O   0  0  0  0  0  0  0  0  0  0  0  0
    8.6525   -5.3691    0.0000 C   0  0  0  0  0  0  0  0  0  0  0  0
   10.9447   -6.4326    0.0000 N   0  0  0  0  0  0  0  0  0  0  0  0
    8.9072   -4.5844    0.0000 C   0  0  0  0  0  0  0  0  0  0  0  0
   11.7294   -6.6873    0.0000 N   0  0  0  0  0  0  0  0  0  0  0  0
  2  1  1  0
  3  2  1  0
  4  2  2  0
  5  1  2  0
  6  3  1  0
  7  1  1  0
  8  4  1  0
  9  7  1  0
  8  6  2  0
M  END

> <chembl_id>
CHEMBL3091844

> <chembl_pref_name>
None

$$$$

     RDKit          2D

 10 10  0  0  0  0  0  0  0  0999 V2000
   15.5866   -6.2168    0.0000 C   0  0  0  0  0  0  0  0  0  0  0  0
   16.2898   -6.6437    0.0000 C   0  0  0  0  0  0  0  0  0  0  0  0
   16.2731   -7.4685    0.0000 C   0  0  0  0  0  0  0  0  0  0  0  0
   16.9803   -7.8996    0.0000 O   0  0  0  0  0  0  0  0  0  0  0  0
   15.5531   -7.8706    0.0000 C   0  0  0  0  0  0  0  0  0  0  0  0
   14.8458   -7.4395    0.0000 C   0  0  0  0  0  0  0  0  0  0  0  0
   14.1216   -7.8416    0.0000 O   0  0  0  0  0  0  0  0  0  0  0  0
   14.8625   -6.6147    0.0000 C   0  0  0  0  0  0  0  0  0  0  0  0
   15.5363   -8.6955    0.0000 O   0  0  0  0  0  0  0  0  0  0  0  0
   14.8136   -9.0934    0.0000 C   0  0  0  0  0  0  0  0  0  0  0  0
  1  2  1  0
  2  3  2  0
  3  4  1  0
  3  5  1  0
  5  9  1  0
  5  6  2  0
  6  7  1  0
  6  8  1  0
  1  8  2  0
  9 10  1  0
M  END

> <chembl_id>
CHEMBL485792

> <chembl_pref_name>
2-METHOXYRESORCINOL

$$$$

     RDKit          2D

 10 10  0  0  0  0  0  0  0  0999 V2000
   -1.4389  -13.4166    0.0000 C   0  0  0  0  0  0  0  0  0  0  0  0
   -1.4401  -14.2440    0.0000 C   0  0  0  0  0  0  0  0  0  0  0  0
   -0.7253  -14.6569    0.0000 C   0  0  0  0  0  0  0  0  0  0  0  0
   -0.0088  -14.2435    0.0000 C   0  0  0  0  0  0  0  0  0  0  0  0
   -0.0117  -13.4130    0.0000 C   0  0  0  0  0  0  0  0  0  0  0  0
   -0.7271  -13.0039    0.0000 C   0  0  0  0  0  0  0  0  0  0  0  0
   -0.7295  -12.1789    0.0000 C   0  0  0  0  0  0  0  0  0  0  0  0
   -0.0163  -11.7642    0.0000 N   0  0  0  0  0  0  0  0  0  0  0  0
   -0.7255  -15.4819    0.0000 C   0  0  0  0  0  0  0  0  0  0  0  0
   -1.4400  -15.8942    0.0000 C   0  0  0  0  0  0  0  0  0  0  0  0
  2  3  1  0
  5  6  2  0
  6  1  1  0
  1  2  2  0
  6  7  1  0
  3  4  2  0
  7  8  1  0
  3  9  1  0
  4  5  1  0
  9 10  1  0
M  END

> <chembl_id>
CHEMBL217135

> <chembl_pref_name>
None

$$$$

     RDKit          2D

  9  9  0  0  0  0  0  0  0  0999 V2000
    4.0726  -14.8266    0.0000 C   0  0  0  0  0  0  0  0  0  0  0  0
    3.3635  -14.4180    0.0000 C   0  0  0  0  0  0  0  0  0  0  0  0
    2.6544  -14.8266    0.0000 C   0  0  0  0  0  0  0  0  0  0  0  0
    1.9494  -14.4180    0.0000 C   0  0  0  0  0  0  0  0  0  0  0  0
    1.9494  -13.6008    0.0000 C   0  0  0  0  0  0  0  0  0  0  0  0
    2.6544  -13.1922    0.0000 C   0  0  0  0  0  0  0  0  0  0  0  0
    3.3635  -13.6008    0.0000 C   0  0  0  0  0  0  0  0  0  0  0  0
    4.7775  -14.4180    0.0000 O   0  0  0  0  0  0  0  0  0  0  0  0
    1.2403  -14.8266    0.0000 F   0  0  0  0  0  0  0  0  0  0  0  0
  1  2  1  0
  2  3  1  0
  3  4  2  0
  4  5  1  0
  5  6  2  0
  6  7  1  0
  2  7  2  0
  1  8  2  0
  4  9  1  0
M  END

> <chembl_id>
CHEMBL3884568

> <chembl_pref_name>
None

$$$$

     RDKit          2D

 10 10  0  0  0  0  0  0  0  0999 V2000
   -0.5708    0.1083    0.0000 C   0  0  0  0  0  0  0  0  0  0  0  0
    1.8417    0.6500    0.0000 N   0  0  0  0  0  0  0  0  0  0  0  0
   -1.7208   -0.7417    0.0000 O   0  0  0  0  0  0  0  0  0  0  0  0
   -0.9958    1.4708    0.0000 C   0  0  0  0  0  0  0  0  0  0  0  0
   -2.8833    0.0875    0.0000 C   0  0  0  0  0  0  0  0  0  0  0  0
   -2.4458    1.4708    0.0000 C   0  0  0  0  0  0  0  0  0  0  0  0
    0.8000   -0.3167    0.0000 C   0  0  0  0  0  0  0  0  0  0  0  0
    0.8792    1.6958    0.0000 C   0  0  0  0  0  0  0  0  0  0  0  0
    2.8167   -0.3917    0.0000 C   0  0  0  0  0  0  0  0  0  0  0  0
    2.8792    1.6125    0.0000 C   0  0  0  0  0  0  0  0  0  0  0  0
  2  7  1  0
  3  1  1  0
  4  1  2  0
  5  3  1  0
  6  4  1  0
  7  1  1  0
  8  2  1  0
  9  2  1  0
 10  2  1  0
  6  5  2  0
M  CHG  1   2   1
M  END

> <chembl_id>
CHEMBL2110739

> <chembl_pref_name>
FURTRETHONIUM

$$$$

     RDKit          2D

 10 10  0  0  0  0  0  0  0  0999 V2000
    0.7580  -13.5125    0.0000 C   0  0  0  0  0  0  0  0  0  0  0  0
    0.7568  -14.3320    0.0000 C   0  0  0  0  0  0  0  0  0  0  0  0
    1.4649  -14.7410    0.0000 C   0  0  0  0  0  0  0  0  0  0  0  0
    2.1746  -14.3316    0.0000 C   0  0  0  0  0  0  0  0  0  0  0  0
    2.1717  -13.5089    0.0000 C   0  0  0  0  0  0  0  0  0  0  0  0
    1.4631  -13.1036    0.0000 C   0  0  0  0  0  0  0  0  0  0  0  0
    2.8829  -14.7391    0.0000 O   0  0  0  0  0  0  0  0  0  0  0  0
    2.8779  -13.0977    0.0000 C   0  0  0  0  0  0  0  0  0  0  0  0
    3.5871  -13.5036    0.0000 N   0  0  0  0  0  0  0  0  0  0  0  0
    4.2933  -13.0923    0.0000 N   0  0  0  0  0  0  0  0  0  0  0  0
  1  2  2  0
  2  3  1  0
  3  4  2  0
  4  5  1  0
  5  6  2  0
  6  1  1  0
  4  7  1  0
  5  8  1  0
  8  9  2  0
  9 10  1  0
M  END

> <chembl_id>
CHEMBL3330829

> <chembl_pref_name>
None

$$$$

     RDKit          2D

 11 11  0  0  0  0  0  0  0  0999 V2000
   -0.6458    0.0000    0.0000 C   0  0  0  0  0  0  0  0  0  0  0  0
    0.6000    0.7000    0.0000 C   0  0  0  0  0  0  0  0  0  0  0  0
   -1.8833    0.7000    0.0000 C   0  0  0  0  0  0  0  0  0  0  0  0
    1.8792   -1.4667    0.0000 N   0  0  0  0  0  0  0  0  0  0  0  0
    1.8792   -0.0292    0.0000 C   0  0  0  0  0  0  0  0  0  0  0  0
   -0.6458   -1.4292    0.0000 C   0  0  0  0  0  0  0  0  0  0  0  0
   -1.8833    2.1333    0.0000 C   0  0  0  0  0  0  0  0  0  0  0  0
   -3.1208    0.0000    0.0000 C   0  0  0  0  0  0  0  0  0  0  0  0
    3.1167    0.6625    0.0000 C   0  0  0  0  0  0  0  0  0  0  0  0
   -1.8833   -2.1292    0.0000 C   0  0  0  0  0  0  0  0  0  0  0  0
   -3.1208   -1.4292    0.0000 C   0  0  0  0  0  0  0  0  0  0  0  0
  2  1  1  0
  3  1  2  0
  4  5  1  0
  5  2  1  0
  6  1  1  0
  7  3  1  0
  8  3  1  0
  9  5  1  0
 10  6  2  0
 11 10  1  0
  8 11  2  0
M  END

> <chembl_id>
CHEMBL2105361

> <chembl_pref_name>
ORTETAMINE

$$$$

     RDKit          2D

  7  7  0  0  0  0  0  0  0  0999 V2000
    1.4521    0.0000    0.0000 O   0  0  0  0  0  0  0  0  0  0  0  0
    0.6681   -0.2567    0.0000 N   0  0  0  0  0  0  0  0  0  0  0  0
    0.0000   -1.5654    0.0000 N   0  0  0  0  0  0  0  0  0  0  0  0
    0.6681   -1.0794    0.0000 C   0  0  0  0  0  0  0  0  0  0  0  0
    1.9353   -0.6681    0.0000 C   0  0  0  0  0  0  0  0  0  0  0  0
    1.4521   -1.3362    0.0000 C   0  0  0  0  0  0  0  0  0  0  0  0
    2.7608   -0.6681    0.0000 C   0  0  0  0  0  0  0  0  0  0  0  0
  1  2  1  0
  1  5  1  0
  2  4  2  0
  3  4  1  0
  4  6  1  0
  5  6  2  0
  5  7  1  0
M  END

> <chembl_id>
CHEMBL3183354

> <chembl_pref_name>
None

$$$$

     RDKit          2D

 10 10  0  0  0  0  0  0  0  0999 V2000
    3.3924    0.0872    0.0000 C   0  0  0  0  0  0  0  0  0  0  0  0
    2.5532    0.6308    0.0000 C   0  0  0  0  0  0  0  0  0  0  0  0
    1.6628    0.1758    0.0000 O   0  0  0  0  0  0  0  0  0  0  0  0
    0.8236    0.7194    0.0000 C   0  0  0  0  0  0  0  0  0  0  0  0
    0.8748    1.7180    0.0000 O   0  0  0  0  0  0  0  0  0  0  0  0
   -0.0668    0.2644    0.0000 C   0  0  0  0  0  0  0  0  0  0  0  0
   -0.2220   -0.7234    0.0000 C   0  0  0  0  0  0  0  0  0  0  0  0
   -1.2096   -0.8812    0.0000 N   0  0  0  0  0  0  0  0  0  0  0  0
   -1.6646    0.0092    0.0000 C   0  0  0  0  0  0  0  0  0  0  0  0
   -0.9584    0.7172    0.0000 N   0  0  0  0  0  0  0  0  0  0  0  0
  1  2  1  0
  2  3  1  0
  3  4  1  0
  4  5  2  0
  4  6  1  0
  6  7  2  0
  7  8  1  0
  8  9  1  0
  9 10  2  0
 10  6  1  0
M  END

> <chembl_id>
CHEMBL4303392

> <chembl_pref_name>
None

$$$$

     RDKit          2D

 10 11  0  0  0  0  0  0  0  0999 V2000
   -0.3833   -2.3667    0.0000 C   0  0  0  0  0  0  0  0  0  0  0  0
    0.4500   -2.3667    0.0000 C   0  0  0  0  0  0  0  0  0  0  0  0
    0.7042   -1.5792    0.0000 N   0  0  0  0  0  0  0  0  0  0  0  0
   -0.6333   -1.5792    0.0000 C   0  0  0  0  0  0  0  0  0  0  0  0
    0.0375   -1.0917    0.0000 N   0  0  0  0  0  0  0  0  0  0  0  0
   -0.9333   -2.9792    0.0000 N   0  0  0  0  0  0  0  0  0  0  0  0
    0.9292   -3.0375    0.0000 O   0  0  0  0  0  0  0  0  0  0  0  0
   -1.4375   -1.4125    0.0000 C   0  0  0  0  0  0  0  0  0  0  0  0
   -1.7375   -2.8042    0.0000 C   0  0  0  0  0  0  0  0  0  0  0  0
   -1.9958   -2.0167    0.0000 C   0  0  0  0  0  0  0  0  0  0  0  0
  2  1  2  0
  3  2  1  0
  4  1  1  0
  5  4  2  0
  6  1  1  0
  7  2  1  0
  8  4  1  0
  9  6  1  0
 10  9  1  0
  3  5  1  0
  8 10  1  0
M  END

> <chembl_id>
CHEMBL417405

> <chembl_pref_name>
None

$$$$

     RDKit          2D

 11 11  0  0  0  0  0  0  0  0999 V2000
    0.7456   -3.0706    0.0000 C   0  0  0  0  0  0  0  0  0  0  0  0
    0.7445   -3.8902    0.0000 C   0  0  0  0  0  0  0  0  0  0  0  0
    1.4525   -4.2991    0.0000 C   0  0  0  0  0  0  0  0  0  0  0  0
    2.1622   -3.8897    0.0000 C   0  0  0  0  0  0  0  0  0  0  0  0
    2.1593   -3.0670    0.0000 C   0  0  0  0  0  0  0  0  0  0  0  0
    1.4507   -2.6618    0.0000 C   0  0  0  0  0  0  0  0  0  0  0  0
    2.8695   -2.6562    0.0000 C   0  0  0  0  0  0  0  0  0  0  0  0
    3.5756   -2.2450    0.0000 N   0  0  0  0  0  0  0  0  0  0  0  0
    2.8705   -4.2972    0.0000 C   0  0  0  0  0  0  0  0  0  0  0  0
    3.5776   -3.8875    0.0000 C   0  0  0  0  0  0  0  0  0  0  0  0
    4.2856   -3.4777    0.0000 N   0  0  0  0  0  0  0  0  0  0  0  0
  1  2  2  0
  2  3  1  0
  3  4  2  0
  4  5  1  0
  5  6  2  0
  6  1  1  0
  7  8  3  0
  5  7  1  0
  4  9  1  0
  9 10  1  0
 10 11  3  0
M  END

> <chembl_id>
CHEMBL2334121

> <chembl_pref_name>
None

$$$$

     RDKit          2D

 11 11  0  0  0  0  0  0  0  0999 V2000
    2.5426   -3.0711    0.0000 C   0  0  0  0  0  0  0  0  0  0  0  0
    1.8250   -3.4759    0.0000 O   0  0  0  0  0  0  0  0  0  0  0  0
    1.1164   -3.0525    0.0000 C   0  0  0  0  0  0  0  0  0  0  0  0
    0.3970   -3.4567    0.0000 C   0  0  0  0  0  0  0  0  0  0  0  0
   -0.3135   -3.0375    0.0000 C   0  0  0  0  0  0  0  0  0  0  0  0
   -0.3045   -2.2134    0.0000 C   0  0  0  0  0  0  0  0  0  0  0  0
    0.4149   -1.8085    0.0000 C   0  0  0  0  0  0  0  0  0  0  0  0
    1.1257   -2.2279    0.0000 C   0  0  0  0  0  0  0  0  0  0  0  0
    3.2553   -3.4903    0.0000 C   0  0  0  0  0  0  0  0  0  0  0  0
    3.9729   -3.0855    0.0000 C   0  0  0  0  0  0  0  0  0  0  0  0
    4.6814   -3.5048    0.0000 C   0  0  0  0  0  0  0  0  0  0  0  0
  1  2  1  0
  2  3  1  0
  3  4  1  0
  4  5  2  0
  5  6  1  0
  6  7  2  0
  7  8  1  0
  3  8  2  0
  9 10  1  0
 10 11  2  0
  1  9  1  0
M  END

> <chembl_id>
CHEMBL452096

> <chembl_pref_name>
ALLYLANISOLE

$$$$

     RDKit          2D

 10 10  0  0  0  0  0  0  0  0999 V2000
    2.0506   -0.7528    0.0000 O   0  0  0  0  0  0  0  0  0  0  0  0
    2.0036    0.9696    0.0000 O   0  0  0  0  0  0  0  0  0  0  0  0
    3.4325    1.7946    0.0000 N   0  0  0  0  0  0  0  0  0  0  0  0
    2.7180   -0.2679    0.0000 C   0  0  0  0  0  0  0  0  0  0  0  0
    2.7180    0.5571    0.0000 C   0  0  0  0  0  0  0  0  0  0  0  0
    3.4325    0.9696    0.0000 C   0  0  0  0  0  0  0  0  0  0  0  0
    3.3855   -0.7528    0.0000 C   0  0  0  0  0  0  0  0  0  0  0  0
    2.3055   -1.5374    0.0000 C   0  0  0  0  0  0  0  0  0  0  0  0
    3.1305   -1.5374    0.0000 C   0  0  0  0  0  0  0  0  0  0  0  0
    4.1470    0.5571    0.0000 C   0  0  0  0  0  0  0  0  0  0  0  0
  1  4  1  0
  1  8  1  0
  2  5  2  0
  3  6  1  0
  4  5  1  0
  4  7  2  0
  5  6  1  0
  6 10  1  0
  7  9  1  0
  8  9  2  0
M  END

> <chembl_id>
CHEMBL1623669

> <chembl_pref_name>
None

$$$$

     RDKit          2D

  9  9  0  0  0  0  0  0  0  0999 V2000
    2.8868   -2.1420    0.0000 O   0  0  0  0  0  0  0  0  0  0  0  0
    2.4740   -1.4290    0.0000 N   0  0  0  0  0  0  0  0  0  0  0  0
    1.6484   -1.4290    0.0000 C   0  0  0  0  0  0  0  0  0  0  0  0
    1.2385   -0.7130    0.0000 C   0  0  0  0  0  0  0  0  0  0  0  0
    1.2385   -2.1420    0.0000 C   0  0  0  0  0  0  0  0  0  0  0  0
    0.4128   -0.7130    0.0000 C   0  0  0  0  0  0  0  0  0  0  0  0
    0.4128   -2.1420    0.0000 C   0  0  0  0  0  0  0  0  0  0  0  0
    0.0000   -1.4290    0.0000 C   0  0  0  0  0  0  0  0  0  0  0  0
    1.6484    0.0000    0.0000 C   0  0  0  0  0  0  0  0  0  0  0  0
  1  2  2  0
  2  3  1  0
  3  4  2  0
  3  5  1  0
  4  6  1  0
  4  9  1  0
  5  7  2  0
  6  8  2  0
  7  8  1  0
M  END

> <chembl_id>
CHEMBL3184586

> <chembl_pref_name>
None

$$$$

     RDKit          2D

 10 10  0  0  0  0  0  0  0  0999 V2000
    8.3197    3.0000    0.0000 C   0  0  0  0  0  0  0  0  0  0  0  0
    8.3197    4.5000    0.0000 C   0  0  0  0  0  0  0  0  0  0  0  0
    7.0207    5.2500    0.0000 C   0  0  0  0  0  0  0  0  0  0  0  0
    5.7216    4.5000    0.0000 C   0  0  0  0  0  0  0  0  0  0  0  0
    5.7216    3.0000    0.0000 C   0  0  0  0  0  0  0  0  0  0  0  0
    7.0207    2.2500    0.0000 C   0  0  0  0  0  0  0  0  0  0  0  0
    4.4226    2.2500    0.0000 C   0  0  0  0  0  0  0  0  0  0  0  0
    3.1236    3.0000    0.0000 O   0  0  0  0  0  0  0  0  0  0  0  0
    1.8245    2.2500    0.0000 N   0  0  0  0  0  0  0  0  0  0  0  0
    7.0207    0.7500    0.0000 F   0  0  0  0  0  0  0  0  0  0  0  0
  1  2  2  0
  2  3  1  0
  3  4  2  0
  4  5  1  0
  5  6  2  0
  6  1  1  0
  5  7  1  0
  7  8  1  0
  8  9  1  0
  6 10  1  0
M  END

> <chembl_id>
CHEMBL3765979

> <chembl_pref_name>
None

$$$$

     RDKit          2D

  9  9  0  0  0  0  0  0  0  0999 V2000
    2.8359   -0.5958    0.0000 N   0  0  0  0  0  0  0  0  0  0  0  0
    2.8359    1.8792    0.0000 N   0  0  0  0  0  0  0  0  0  0  0  0
    2.8359    1.0542    0.0000 C   0  0  0  0  0  0  0  0  0  0  0  0
    2.1214   -0.1833    0.0000 C   0  0  0  0  0  0  0  0  0  0  0  0
    3.5504   -0.1833    0.0000 C   0  0  0  0  0  0  0  0  0  0  0  0
    2.1214    0.6417    0.0000 C   0  0  0  0  0  0  0  0  0  0  0  0
    3.5504    0.6417    0.0000 C   0  0  0  0  0  0  0  0  0  0  0  0
    2.8359   -1.4208    0.0000 C   0  0  0  0  0  0  0  0  0  0  0  0
    3.5504   -1.8333    0.0000 C   0  0  0  0  0  0  0  0  0  0  0  0
  1  4  1  0
  1  5  1  0
  1  8  1  0
  2  3  2  0
  3  6  1  0
  3  7  1  0
  4  6  2  0
  5  7  2  0
  8  9  1  0
M  END

> <chembl_id>
CHEMBL1619118

> <chembl_pref_name>
None

$$$$

     RDKit          2D

 10 10  0  0  0  0  0  0  0  0999 V2000
    2.1320   -2.4611    0.0000 N   0  0  0  0  0  0  0  0  0  0  0  0
    1.4309   -1.2191    0.0000 C   0  0  0  0  0  0  0  0  0  0  0  0
    1.4309   -2.0404    0.0000 C   0  0  0  0  0  0  0  0  0  0  0  0
    2.1520   -0.8099    0.0000 C   0  0  0  0  0  0  0  0  0  0  0  0
    0.7097   -0.8099    0.0000 C   0  0  0  0  0  0  0  0  0  0  0  0
    0.7097   -2.4611    0.0000 C   0  0  0  0  0  0  0  0  0  0  0  0
    0.0000   -1.2191    0.0000 C   0  0  0  0  0  0  0  0  0  0  0  0
    0.0000   -2.0404    0.0000 C   0  0  0  0  0  0  0  0  0  0  0  0
    2.8618   -1.2306    0.0000 C   0  0  0  0  0  0  0  0  0  0  0  0
    2.1520    0.0000    0.0000 C   0  0  0  0  0  0  0  0  0  0  0  0
  1  3  1  0
  2  3  2  0
  2  4  1  0
  2  5  1  0
  3  6  1  0
  4  9  1  0
  4 10  1  0
  5  7  2  0
  6  8  2  0
  7  8  1  0
M  END

> <chembl_id>
CHEMBL3560385

> <chembl_pref_name>
None

$$$$

     RDKit          2D

 10 10  0  0  0  0  0  0  0  0999 V2000
    1.4085    0.0000    0.0000 O   0  0  0  0  0  0  0  0  0  0  0  0
    2.1185   -1.2296    0.0000 C   0  0  0  0  0  0  0  0  0  0  0  0
    1.4085   -0.8093    0.0000 C   0  0  0  0  0  0  0  0  0  0  0  0
    2.1185   -2.0390    0.0000 C   0  0  0  0  0  0  0  0  0  0  0  0
    0.7213   -2.0390    0.0000 C   0  0  0  0  0  0  0  0  0  0  0  0
    0.7213   -1.2296    0.0000 C   0  0  0  0  0  0  0  0  0  0  0  0
    1.4085   -2.4592    0.0000 C   0  0  0  0  0  0  0  0  0  0  0  0
    2.8398   -0.8207    0.0000 C   0  0  0  0  0  0  0  0  0  0  0  0
    2.8398   -2.4592    0.0000 C   0  0  0  0  0  0  0  0  0  0  0  0
    0.0000   -2.4592    0.0000 C   0  0  0  0  0  0  0  0  0  0  0  0
  1  3  1  0
  2  3  2  0
  2  4  1  0
  2  8  1  0
  3  6  1  0
  4  7  2  0
  4  9  1  0
  5  6  2  0
  5  7  1  0
  5 10  1  0
M  END

> <chembl_id>
CHEMBL3182604

> <chembl_pref_name>
None

$$$$

     RDKit          2D

 10 10  0  0  0  0  0  0  0  0999 V2000
    2.7375   -5.5042    0.0000 N   0  0  0  0  0  0  0  0  0  0  0  0
    2.7292   -3.0292    0.0000 C   0  0  0  0  0  0  0  0  0  0  0  0
    2.7375   -3.8542    0.0000 C   0  0  0  0  0  0  0  0  0  0  0  0
    3.4500   -2.6167    0.0000 O   0  0  0  0  0  0  0  0  0  0  0  0
    3.4542   -5.0917    0.0000 C   0  0  0  0  0  0  0  0  0  0  0  0
    2.0250   -5.0917    0.0000 C   0  0  0  0  0  0  0  0  0  0  0  0
    3.4542   -4.2667    0.0000 C   0  0  0  0  0  0  0  0  0  0  0  0
    2.0250   -4.2667    0.0000 C   0  0  0  0  0  0  0  0  0  0  0  0
    2.0167   -2.6167    0.0000 N   0  0  0  0  0  0  0  0  0  0  0  0
    2.7292   -6.3292    0.0000 C   0  0  0  0  0  0  0  0  0  0  0  0
  2  3  1  0
  3  8  1  0
  4  2  2  0
  5  1  2  0
  6  1  1  0
  7  5  1  0
  8  6  2  0
  9  2  1  0
 10  1  1  0
  3  7  2  0
M  CHG  1   1   1
M  END

> <chembl_id>
CHEMBL72490

> <chembl_pref_name>
None

$$$$

     RDKit          2D

  8  8  0  0  0  0  0  0  0  0999 V2000
    1.5430  -20.0042    0.0000 C   0  0  0  0  0  0  0  0  0  0  0  0
    2.2229  -20.4714    0.0000 N   0  0  0  0  0  0  0  0  0  0  0  0
    2.8773  -19.9690    0.0000 C   0  0  0  0  0  0  0  0  0  0  0  0
    2.6019  -19.1911    0.0000 N   0  0  0  0  0  0  0  0  0  0  0  0
    1.7772  -19.2133    0.0000 S   0  0  0  0  0  0  0  0  0  0  0  0
    3.6684  -20.2032    0.0000 O   0  0  0  0  0  0  0  0  0  0  0  0
    0.7661  -20.2788    0.0000 N   0  0  0  0  0  0  0  0  0  0  0  0
    3.0691  -18.5112    0.0000 C   0  0  0  0  0  0  0  0  0  0  0  0
  3  4  1  0
  4  5  1  0
  5  1  1  0
  1  2  2  0
  3  6  2  0
  1  7  1  0
  2  3  1  0
  4  8  1  0
M  END

> <chembl_id>
CHEMBL262077

> <chembl_pref_name>
None

$$$$

     RDKit          2D

  8  8  0  0  0  0  0  0  0  0999 V2000
    4.8656   -5.7822    0.0000 N   0  0  0  0  0  0  0  0  0  0  0  0
    5.6904   -5.7822    0.0000 C   0  0  0  0  0  0  0  0  0  0  0  0
    5.9471   -4.9981    0.0000 C   0  0  0  0  0  0  0  0  0  0  0  0
    5.2780   -4.5115    0.0000 C   0  0  0  0  0  0  0  0  0  0  0  0
    4.6131   -4.9981    0.0000 S   0  0  0  0  0  0  0  0  0  0  0  0
    6.7354   -4.7424    0.0000 C   0  0  0  0  0  0  0  0  0  0  0  0
    7.3475   -5.2952    0.0000 O   0  0  0  0  0  0  0  0  0  0  0  0
    6.9080   -3.9359    0.0000 O   0  0  0  0  0  0  0  0  0  0  0  0
  3  4  2  0
  4  5  1  0
  5  1  1  0
  1  2  2  0
  2  3  1  0
  6  7  1  0
  6  8  2  0
  3  6  1  0
M  END

> <chembl_id>
CHEMBL393226

> <chembl_pref_name>
None

$$$$

     RDKit          2D

  9  9  0  0  0  0  0  0  0  0999 V2000
    4.4812   -0.9230    0.0000 S   0  0  0  0  0  0  0  0  0  0  0  0
    2.0036   -0.4355    0.0000 O   0  0  0  0  0  0  0  0  0  0  0  0
    2.4451    0.9235    0.0000 O   0  0  0  0  0  0  0  0  0  0  0  0
    3.6562   -0.9230    0.0000 N   0  0  0  0  0  0  0  0  0  0  0  0
    4.0687    1.1715    0.0000 N   0  0  0  0  0  0  0  0  0  0  0  0
    3.4013   -0.1384    0.0000 C   0  0  0  0  0  0  0  0  0  0  0  0
    4.0687    0.3465    0.0000 C   0  0  0  0  0  0  0  0  0  0  0  0
    2.6167    0.1166    0.0000 C   0  0  0  0  0  0  0  0  0  0  0  0
    4.7362   -0.1384    0.0000 C   0  0  0  0  0  0  0  0  0  0  0  0
  1  4  1  0
  1  9  1  0
  2  8  2  0
  3  8  1  0
  4  6  2  0
  5  7  1  0
  6  7  1  0
  6  8  1  0
  7  9  2  0
M  END

> <chembl_id>
CHEMBL1617307

> <chembl_pref_name>
None

$$$$

     RDKit          2D

 10 11  0  0  0  0  0  0  0  0999 V2000
   20.3663  -12.5006    0.0000 N   0  0  0  0  0  0  0  0  0  0  0  0
   19.7034  -12.0185    0.0000 N   0  0  0  0  0  0  0  0  0  0  0  0
   19.0446  -12.5006    0.0000 C   0  0  0  0  0  0  0  0  0  0  0  0
   19.7021  -11.2013    0.0000 O   0  0  0  0  0  0  0  0  0  0  0  0
   20.1120  -13.2773    0.0000 C   0  0  0  0  0  0  0  0  0  0  0  0
   19.2989  -13.2725    0.0000 C   0  0  0  0  0  0  0  0  0  0  0  0
   18.8905  -13.9704    0.0000 C   0  0  0  0  0  0  0  0  0  0  0  0
   19.2906  -14.6775    0.0000 N   0  0  0  0  0  0  0  0  0  0  0  0
   20.1037  -14.6823    0.0000 C   0  0  0  0  0  0  0  0  0  0  0  0
   20.5166  -13.9800    0.0000 C   0  0  0  0  0  0  0  0  0  0  0  0
  5  1  2  0
  1  2  1  0
  2  3  1  0
  3  6  2  0
  2  4  1  0
  5  6  1  0
  5 10  1  0
  6  7  1  0
  7  8  1  0
  8  9  1  0
  9 10  1  0
M  END

> <chembl_id>
CHEMBL2315228

> <chembl_pref_name>
None

$$$$

     RDKit          2D

 10 10  0  0  0  0  0  0  0  0999 V2000
    2.5542   -2.5375    0.0000 C   0  0  0  0  0  0  0  0  0  0  0  0
    4.6167   -1.9292    0.0000 N   0  0  0  0  0  0  0  0  0  0  0  0
    3.0667   -2.8375    0.0000 C   0  0  0  0  0  0  0  0  0  0  0  0
    2.5542   -1.9375    0.0000 C   0  0  0  0  0  0  0  0  0  0  0  0
    3.5875   -1.9375    0.0000 C   0  0  0  0  0  0  0  0  0  0  0  0
    3.5875   -2.5375    0.0000 C   0  0  0  0  0  0  0  0  0  0  0  0
    3.0667   -1.6417    0.0000 C   0  0  0  0  0  0  0  0  0  0  0  0
    3.0750   -3.4375    0.0000 F   0  0  0  0  0  0  0  0  0  0  0  0
    2.0375   -1.6375    0.0000 F   0  0  0  0  0  0  0  0  0  0  0  0
    4.1042   -1.6375    0.0000 C   0  0  0  0  0  0  0  0  0  0  0  0
  2 10  1  0
  3  1  1  0
  4  1  2  0
  5  7  2  0
  6  3  2  0
  7  4  1  0
  8  3  1  0
  9  4  1  0
 10  5  1  0
  5  6  1  0
M  END

> <chembl_id>
CHEMBL1178154

> <chembl_pref_name>
None

$$$$

     RDKit          2D

 10 10  0  0  0  0  0  0  0  0999 V2000
    2.1494    0.0000    0.0000 N   0  0  0  0  0  0  0  0  0  0  0  0
    2.1494   -0.8283    0.0000 C   0  0  0  0  0  0  0  0  0  0  0  0
    1.4317   -1.2460    0.0000 C   0  0  0  0  0  0  0  0  0  0  0  0
    2.8527   -1.2460    0.0000 C   0  0  0  0  0  0  0  0  0  0  0  0
    1.4317   -2.0708    0.0000 C   0  0  0  0  0  0  0  0  0  0  0  0
    2.8527   -2.0708    0.0000 C   0  0  0  0  0  0  0  0  0  0  0  0
    2.1494   -2.4778    0.0000 C   0  0  0  0  0  0  0  0  0  0  0  0
    0.7177   -0.8283    0.0000 C   0  0  0  0  0  0  0  0  0  0  0  0
    3.5704   -0.8283    0.0000 C   0  0  0  0  0  0  0  0  0  0  0  0
    0.0000   -1.2460    0.0000 C   0  0  0  0  0  0  0  0  0  0  0  0
  1  2  1  0
  2  3  1  0
  2  4  2  0
  3  5  2  0
  3  8  1  0
  4  6  1  0
  4  9  1  0
  5  7  1  0
  6  7  2  0
  8 10  1  0
M  END

> <chembl_id>
CHEMBL3187754

> <chembl_pref_name>
None

$$$$

     RDKit          2D

 11 11  0  0  0  0  0  0  0  0999 V2000
   13.5111    1.9875    0.0000 C   0  0  0  0  0  0  0  0  0  0  0  0
   13.5099    1.1602    0.0000 C   0  0  0  0  0  0  0  0  0  0  0  0
   14.2247    0.7473    0.0000 C   0  0  0  0  0  0  0  0  0  0  0  0
   14.9412    1.1606    0.0000 C   0  0  0  0  0  0  0  0  0  0  0  0
   14.9383    1.9912    0.0000 C   0  0  0  0  0  0  0  0  0  0  0  0
   14.2229    2.4003    0.0000 C   0  0  0  0  0  0  0  0  0  0  0  0
   15.6563    0.7493    0.0000 C   0  0  0  0  0  0  0  0  0  0  0  0
   15.6576   -0.0757    0.0000 O   0  0  0  0  0  0  0  0  0  0  0  0
   15.6512    2.4064    0.0000 C   0  0  0  0  0  0  0  0  0  0  0  0
   16.3672    1.9966    0.0000 C   0  0  0  0  0  0  0  0  0  0  0  0
   15.6481    3.2314    0.0000 O   0  0  0  0  0  0  0  0  0  0  0  0
  5  6  2  0
  6  1  1  0
  1  2  2  0
  4  7  1  0
  3  4  2  0
  7  8  2  0
  5  9  1  0
  4  5  1  0
  9 10  1  0
  2  3  1  0
  9 11  2  0
M  END

> <chembl_id>
CHEMBL394412

> <chembl_pref_name>
None

$$$$

     RDKit          2D

  9  9  0  0  0  0  0  0  0  0999 V2000
    4.5167   -1.1792    0.0000 C   0  0  0  0  0  0  0  0  0  0  0  0
    4.5167   -0.3542    0.0000 S   0  0  0  0  0  0  0  0  0  0  0  0
    4.5167   -2.8375    0.0000 C   0  0  0  0  0  0  0  0  0  0  0  0
    3.8042   -1.6000    0.0000 C   0  0  0  0  0  0  0  0  0  0  0  0
    5.2375   -1.5917    0.0000 C   0  0  0  0  0  0  0  0  0  0  0  0
    5.2375   -2.4250    0.0000 C   0  0  0  0  0  0  0  0  0  0  0  0
    3.8042   -2.4250    0.0000 C   0  0  0  0  0  0  0  0  0  0  0  0
    4.5167   -3.6625    0.0000 O   0  0  0  0  0  0  0  0  0  0  0  0
    3.8042   -4.0667    0.0000 C   0  0  0  0  0  0  0  0  0  0  0  0
  2  1  1  0
  3  6  2  0
  4  1  1  0
  5  1  2  0
  6  5  1  0
  7  4  2  0
  8  3  1  0
  9  8  1  0
  7  3  1  0
M  END

> <chembl_id>
CHEMBL119636

> <chembl_pref_name>
None

$$$$

     RDKit          2D

 11 12  0  0  0  0  0  0  0  0999 V2000
    2.6874   -1.4527    0.0000 N   0  0  0  0  0  0  0  0  0  0  0  0
    2.4667    0.0000    0.0000 N   0  0  0  0  0  0  0  0  0  0  0  0
    2.4667   -2.9054    0.0000 N   0  0  0  0  0  0  0  0  0  0  0  0
    1.4236   -1.0460    0.0000 C   0  0  0  0  0  0  0  0  0  0  0  0
    1.4236   -1.8711    0.0000 C   0  0  0  0  0  0  0  0  0  0  0  0
    2.2081   -0.7874    0.0000 C   0  0  0  0  0  0  0  0  0  0  0  0
    2.2081   -2.1180    0.0000 C   0  0  0  0  0  0  0  0  0  0  0  0
    0.7060   -0.6276    0.0000 C   0  0  0  0  0  0  0  0  0  0  0  0
    0.7060   -2.2778    0.0000 C   0  0  0  0  0  0  0  0  0  0  0  0
    0.0000   -1.0460    0.0000 C   0  0  0  0  0  0  0  0  0  0  0  0
    0.0000   -1.8711    0.0000 C   0  0  0  0  0  0  0  0  0  0  0  0
  1  6  1  0
  1  7  1  0
  2  6  2  3
  3  7  2  3
  4  5  2  0
  4  6  1  0
  4  8  1  0
  5  7  1  0
  5  9  1  0
  8 10  2  0
  9 11  2  0
 10 11  1  0
M  END

> <chembl_id>
CHEMBL3185395

> <chembl_pref_name>
None

$$$$

     RDKit          2D

 10 10  0  0  0  0  0  0  0  0999 V2000
   -3.6931   -6.9375    0.0000 C   0  0  0  0  0  0  0  0  0  0  0  0
   -3.6943   -7.7648    0.0000 C   0  0  0  0  0  0  0  0  0  0  0  0
   -2.9794   -8.1777    0.0000 C   0  0  0  0  0  0  0  0  0  0  0  0
   -2.2630   -7.7644    0.0000 C   0  0  0  0  0  0  0  0  0  0  0  0
   -2.2659   -6.9338    0.0000 C   0  0  0  0  0  0  0  0  0  0  0  0
   -2.9812   -6.5247    0.0000 C   0  0  0  0  0  0  0  0  0  0  0  0
   -1.5542   -8.1708    0.0000 O   0  0  0  0  0  0  0  0  0  0  0  0
   -0.8417   -7.7583    0.0000 C   0  0  0  0  0  0  0  0  0  0  0  0
   -4.4091   -8.1768    0.0000 C   0  0  0  0  0  0  0  0  0  0  0  0
   -5.1238   -8.5887    0.0000 C   0  0  0  0  0  0  0  0  0  0  0  0
  2  3  1  0
  5  6  2  0
  6  1  1  0
  1  2  2  0
  4  7  1  0
  3  4  2  0
  7  8  1  0
  2  9  1  0
  4  5  1  0
  9 10  3  0
M  END

> <chembl_id>
CHEMBL1288325

> <chembl_pref_name>
None

$$$$

     RDKit          2D

 10 10  0  0  0  0  0  0  0  0999 V2000
    3.3402   -6.5333    0.0000 C   0  0  0  0  0  0  0  0  0  0  0  0
    3.3391   -7.3607    0.0000 C   0  0  0  0  0  0  0  0  0  0  0  0
    4.0539   -7.7735    0.0000 N   0  0  0  0  0  0  0  0  0  0  0  0
    4.7703   -7.3602    0.0000 C   0  0  0  0  0  0  0  0  0  0  0  0
    4.7675   -6.5297    0.0000 C   0  0  0  0  0  0  0  0  0  0  0  0
    4.0521   -6.1205    0.0000 C   0  0  0  0  0  0  0  0  0  0  0  0
    4.0537   -8.5985    0.0000 C   0  0  0  0  0  0  0  0  0  0  0  0
    2.6257   -6.1210    0.0000 C   0  0  0  0  0  0  0  0  0  0  0  0
    1.9113   -6.5336    0.0000 N   0  0  0  0  0  0  0  0  0  0  0  0
    1.1967   -6.1213    0.0000 O   0  0  0  0  0  0  0  0  0  0  0  0
  5  6  2  0
  6  1  1  0
  2  3  1  0
  3  7  1  0
  1  8  1  0
  3  4  2  0
  8  9  2  0
  1  2  2  0
  9 10  1  0
  4  5  1  0
M  CHG  1   3   1
M  END

> <chembl_id>
CHEMBL1187589

> <chembl_pref_name>
None

$$$$

     RDKit          2D

 11 12  0  0  0  0  0  0  0  0999 V2000
   32.2623  -21.2460    0.0000 C   0  0  0  0  0  0  0  0  0  0  0  0
   32.9782  -21.6585    0.0000 C   0  0  0  0  0  0  0  0  0  0  0  0
   32.2623  -22.0710    0.0000 C   0  0  0  0  0  0  0  0  0  0  0  0
   31.4480  -21.1039    0.0000 N   0  0  0  0  0  0  0  0  0  0  0  0
   33.8032  -21.6585    0.0000 C   0  0  0  0  0  0  0  0  0  0  0  0
   34.2157  -20.9468    0.0000 C   0  0  0  0  0  0  0  0  0  0  0  0
   35.0407  -20.9468    0.0000 C   0  0  0  0  0  0  0  0  0  0  0  0
   35.4532  -21.6585    0.0000 C   0  0  0  0  0  0  0  0  0  0  0  0
   35.0407  -22.3743    0.0000 C   0  0  0  0  0  0  0  0  0  0  0  0
   34.2157  -22.3743    0.0000 C   0  0  0  0  0  0  0  0  0  0  0  0
   32.5440  -20.4714    0.0000 C   0  0  0  0  0  0  0  0  0  0  0  0
  1  2  1  0
  2  3  1  0
  1  3  1  0
  1  4  1  6
  5  6  1  0
  6  7  2  0
  7  8  1  0
  8  9  2  0
  9 10  1  0
  5 10  2  0
  2  5  1  1
  1 11  1  0
M  END

> <chembl_id>
CHEMBL3545658

> <chembl_pref_name>
None

$$$$

     RDKit          2D

  7  7  0  0  0  0  0  0  0  0999 V2000
    2.3064   -1.8241    0.0000 S   0  0  0  0  0  0  0  0  0  0  0  0
    2.1735   -0.5019    0.0000 N   0  0  0  0  0  0  0  0  0  0  0  0
    0.0000    0.0000    0.0000 N   0  0  0  0  0  0  0  0  0  0  0  0
    1.4131   -0.8232    0.0000 C   0  0  0  0  0  0  0  0  0  0  0  0
    1.5074   -1.6453    0.0000 C   0  0  0  0  0  0  0  0  0  0  0  0
    2.7244   -1.1066    0.0000 C   0  0  0  0  0  0  0  0  0  0  0  0
    0.7129   -0.4153    0.0000 C   0  0  0  0  0  0  0  0  0  0  0  0
  1  5  1  0
  1  6  1  0
  2  4  1  0
  2  6  2  0
  3  7  3  0
  4  5  2  0
  4  7  1  0
M  END

> <chembl_id>
CHEMBL3182229

> <chembl_pref_name>
None

$$$$
 
     RDKit          2D

  8  8  0  0  0  0  0  0  0  0999 V2000
   35.4941  -20.4793    0.0000 C   0  0  0  0  0  0  0  0  0  0  0  0
   36.3113  -20.4793    0.0000 C   0  0  0  0  0  0  0  0  0  0  0  0
   36.5657  -19.7026    0.0000 C   0  0  0  0  0  0  0  0  0  0  0  0
   35.9027  -19.2205    0.0000 O   0  0  0  0  0  0  0  0  0  0  0  0
   35.2440  -19.7026    0.0000 C   0  0  0  0  0  0  0  0  0  0  0  0
   37.3432  -19.4512    0.0000 C   0  0  0  0  0  0  0  0  0  0  0  0
   37.9498  -19.9988    0.0000 N   0  0  0  0  0  0  0  0  0  0  0  0
   38.7273  -19.7474    0.0000 C   0  0  0  0  0  0  0  0  0  0  0  0
  1  2  1  0
  2  3  2  0
  3  4  1  0
  4  5  1  0
  5  1  2  0
  3  6  1  0
  6  7  1  0
  7  8  1  0
M  END

> <chembl_id>
CHEMBL4439478

> <chembl_pref_name>
None

$$$$

     RDKit          2D

  7  7  0  0  0  0  0  0  0  0999 V2000
    1.5710   -1.9493    0.0000 S   0  0  0  0  0  0  0  0  0  0  0  0
    0.6861    0.0000    0.0000 O   0  0  0  0  0  0  0  0  0  0  0  0
    1.0943   -1.2739    0.0000 C   0  0  0  0  0  0  0  0  0  0  0  0
    1.3529   -0.4980    0.0000 C   0  0  0  0  0  0  0  0  0  0  0  0
    0.2693   -1.2739    0.0000 C   0  0  0  0  0  0  0  0  0  0  0  0
    0.0000   -0.4980    0.0000 C   0  0  0  0  0  0  0  0  0  0  0  0
    2.1374   -0.2287    0.0000 C   0  0  0  0  0  0  0  0  0  0  0  0
  1  3  1  0
  2  4  1  0
  2  6  1  0
  3  4  2  0
  3  5  1  0
  4  7  1  0
  5  6  2  0
M  END

> <chembl_id>
CHEMBL3188696

> <chembl_pref_name>
None

$$$$

     RDKit          2D

 10 11  0  0  0  0  0  0  0  0999 V2000
   -0.5583   -8.6292    0.0000 N   0  0  0  0  0  0  0  0  0  0  0  0
   -1.9833   -8.6375    0.0000 C   0  0  0  0  0  0  0  0  0  0  0  0
   -1.9833   -9.4625    0.0000 C   0  0  0  0  0  0  0  0  0  0  0  0
   -1.2750   -8.2167    0.0000 C   0  0  0  0  0  0  0  0  0  0  0  0
   -0.5583   -9.4542    0.0000 C   0  0  0  0  0  0  0  0  0  0  0  0
   -1.2708   -9.8750    0.0000 C   0  0  0  0  0  0  0  0  0  0  0  0
   -2.7000   -9.8792    0.0000 C   0  0  0  0  0  0  0  0  0  0  0  0
   -2.7000   -8.2250    0.0000 C   0  0  0  0  0  0  0  0  0  0  0  0
   -3.4125   -8.6375    0.0000 C   0  0  0  0  0  0  0  0  0  0  0  0
   -3.4125   -9.4667    0.0000 C   0  0  0  0  0  0  0  0  0  0  0  0
  2  4  1  0
  3  6  1  0
  4  1  2  0
  5  1  1  0
  6  5  2  0
  7  3  1  0
  8  2  1  0
  9  8  1  0
 10  7  1  0
  2  3  2  0
  9 10  1  0
M  END

> <chembl_id>
CHEMBL121919

> <chembl_pref_name>
5,6,7,8-TETRAHYDROISOQUINOLINE

$$$$

     RDKit          2D

  9  9  0  0  0  0  0  0  0  0999 V2000
    1.2534   -1.0848    0.0000 N   0  0  0  0  0  0  0  0  0  0  0  0
    2.5160   -0.6655    0.0000 N   0  0  0  0  0  0  0  0  0  0  0  0
    2.0283   -1.3355    0.0000 C   0  0  0  0  0  0  0  0  0  0  0  0
    1.2534   -0.2598    0.0000 C   0  0  0  0  0  0  0  0  0  0  0  0
    2.0283    0.0000    0.0000 C   0  0  0  0  0  0  0  0  0  0  0  0
    0.5880   -1.5725    0.0000 C   0  0  0  0  0  0  0  0  0  0  0  0
    3.3456   -0.6655    0.0000 C   0  0  0  0  0  0  0  0  0  0  0  0
    0.6655   -2.3884    0.0000 C   0  0  0  0  0  0  0  0  0  0  0  0
    0.0000   -2.8761    0.0000 C   0  0  0  0  0  0  0  0  0  0  0  0
  1  3  1  0
  1  4  1  0
  1  6  1  0
  2  3  2  0
  2  5  1  0
  2  7  1  0
  4  5  2  0
  6  8  1  0
  8  9  1  0
M  CHG  1   2   1
M  END

> <chembl_id>
CHEMBL1229271

> <chembl_pref_name>
None

$$$$

     RDKit          2D

 10 10  0  0  0  0  0  0  0  0999 V2000
    2.1379   -7.5735    0.0000 C   0  0  0  0  0  0  0  0  0  0  0  0
    2.1379   -8.3907    0.0000 C   0  0  0  0  0  0  0  0  0  0  0  0
    2.8432   -8.7951    0.0000 N   0  0  0  0  0  0  0  0  0  0  0  0
    3.5485   -8.3907    0.0000 C   0  0  0  0  0  0  0  0  0  0  0  0
    3.5485   -7.5735    0.0000 C   0  0  0  0  0  0  0  0  0  0  0  0
    2.8432   -7.1607    0.0000 C   0  0  0  0  0  0  0  0  0  0  0  0
    1.4308   -8.8003    0.0000 N   0  0  0  0  0  0  0  0  0  0  0  0
    2.8413   -6.3425    0.0000 C   0  0  0  0  0  0  0  0  0  0  0  0
    3.5490   -5.9339    0.0000 O   0  0  0  0  0  0  0  0  0  0  0  0
    2.1336   -5.9339    0.0000 O   0  0  0  0  0  0  0  0  0  0  0  0
  1  2  2  0
  1  6  1  0
  2  3  1  0
  3  4  2  0
  4  5  1  0
  5  6  2  0
  2  7  1  0
  8  9  1  0
  8 10  2  0
  6  8  1  0
M  END

> <chembl_id>
CHEMBL3322866

> <chembl_pref_name>
None

$$$$

     RDKit          2D

 10 11  0  0  0  0  0  0  0  0999 V2000
    1.3336    1.8914    0.0000 N   0  0  0  0  0  0  0  0  0  0  0  0
    2.0024    1.1478    0.0000 C   0  0  0  0  0  0  0  0  0  0  0  0
    1.6926    0.1970    0.0000 C   0  0  0  0  0  0  0  0  0  0  0  0
    2.2798   -0.6124    0.0000 N   0  0  0  0  0  0  0  0  0  0  0  0
    1.6912   -1.4210    0.0000 N   0  0  0  0  0  0  0  0  0  0  0  0
    0.7406   -1.1112    0.0000 C   0  0  0  0  0  0  0  0  0  0  0  0
    0.7412   -0.1112    0.0000 N   0  0  0  0  0  0  0  0  0  0  0  0
   -0.2094    0.1986    0.0000 C   0  0  0  0  0  0  0  0  0  0  0  0
   -0.7978   -0.6100    0.0000 C   0  0  0  0  0  0  0  0  0  0  0  0
   -0.2108   -1.4194    0.0000 C   0  0  0  0  0  0  0  0  0  0  0  0
  1  2  1  0
  2  3  1  0
  3  4  2  0
  4  5  1  0
  5  6  2  0
  6  7  1  0
  7  8  1  0
  8  9  1  0
  9 10  1  0
  7  3  1  0
 10  6  1  0
M  END

> <chembl_id>
CHEMBL4533750

> <chembl_pref_name>
None

$$$$

     RDKit          2D

  8  8  0  0  0  0  0  0  0  0999 V2000
    0.0000    0.0000    0.0000 Cl  0  0  0  0  0  0  0  0  0  0  0  0
    2.4721   -1.4279    0.0000 N   0  0  0  0  0  0  0  0  0  0  0  0
    1.2375   -0.7154    0.0000 C   0  0  0  0  0  0  0  0  0  0  0  0
    1.6471   -1.4279    0.0000 C   0  0  0  0  0  0  0  0  0  0  0  0
    1.6471    0.0000    0.0000 C   0  0  0  0  0  0  0  0  0  0  0  0
    0.4125   -0.7154    0.0000 C   0  0  0  0  0  0  0  0  0  0  0  0
    2.4721    0.0000    0.0000 C   0  0  0  0  0  0  0  0  0  0  0  0
    2.8846   -0.7154    0.0000 C   0  0  0  0  0  0  0  0  0  0  0  0
  1  6  1  0
  2  4  2  0
  2  8  1  0
  3  4  1  0
  3  5  2  0
  3  6  1  0
  5  7  1  0
  7  8  2  0
M  END

> <chembl_id>
CHEMBL3303788

> <chembl_pref_name>
None

$$$$

     RDKit          2D

 10 10  0  0  0  0  0  0  0  0999 V2000
    2.8694    0.0000    0.0000 O   0  0  0  0  0  0  0  0  0  0  0  0
    0.7174   -1.2338    0.0000 C   0  0  0  0  0  0  0  0  0  0  0  0
    2.1520   -1.2338    0.0000 C   0  0  0  0  0  0  0  0  0  0  0  0
    0.7174   -2.0631    0.0000 C   0  0  0  0  0  0  0  0  0  0  0  0
    1.4347   -0.8263    0.0000 C   0  0  0  0  0  0  0  0  0  0  0  0
    2.1520   -2.0631    0.0000 C   0  0  0  0  0  0  0  0  0  0  0  0
    1.4347   -2.4705    0.0000 C   0  0  0  0  0  0  0  0  0  0  0  0
    2.8694   -0.8263    0.0000 C   0  0  0  0  0  0  0  0  0  0  0  0
    0.0000   -0.8263    0.0000 C   0  0  0  0  0  0  0  0  0  0  0  0
    0.0000   -2.4705    0.0000 C   0  0  0  0  0  0  0  0  0  0  0  0
  1  8  2  0
  2  4  2  0
  2  5  1  0
  2  9  1  0
  3  5  2  0
  3  6  1  0
  3  8  1  0
  4  7  1  0
  4 10  1  0
  6  7  2  0
M  END

> <chembl_id>
CHEMBL3187739

> <chembl_pref_name>
None

$$$$

     RDKit          2D

 10 11  0  0  1  0  0  0  0  0999 V2000
    4.7879   -1.8614    0.0000 N   0  0  0  0  0  0  0  0  0  0  0  0
    3.6609   -0.7344    0.0000 C   0  0  0  0  0  0  0  0  0  0  0  0
    4.0734   -1.4489    0.0000 C   0  0  0  0  0  0  0  0  0  0  0  0
    3.2484   -1.4489    0.0000 C   0  0  0  0  0  0  0  0  0  0  0  0
    3.6609    0.0906    0.0000 C   0  0  0  0  0  0  0  0  0  0  0  0
    2.9464    0.5031    0.0000 C   0  0  0  0  0  0  0  0  0  0  0  0
    4.3754    0.5031    0.0000 C   0  0  0  0  0  0  0  0  0  0  0  0
    2.9464    1.3281    0.0000 C   0  0  0  0  0  0  0  0  0  0  0  0
    4.3754    1.3281    0.0000 C   0  0  0  0  0  0  0  0  0  0  0  0
    3.6609    1.7406    0.0000 C   0  0  0  0  0  0  0  0  0  0  0  0
  1  3  1  0
  2  3  1  0
  2  4  1  0
  2  5  1  1
  3  4  1  0
  5  6  2  0
  5  7  1  0
  6  8  1  0
  7  9  2  0
  8 10  2  0
  9 10  1  0
M  END

> <chembl_id>
CHEMBL1623519

> <chembl_pref_name>
None

$$$$

     RDKit          2D

 10 10  0  0  0  0  0  0  0  0999 V2000
   -2.5886    0.6700    0.0000 C   0  0  0  0  0  0  0  0  0  0  0  0
   -1.7220    0.1710    0.0000 C   0  0  0  0  0  0  0  0  0  0  0  0
   -1.7206   -0.8290    0.0000 C   0  0  0  0  0  0  0  0  0  0  0  0
   -0.8566    0.6720    0.0000 C   0  0  0  0  0  0  0  0  0  0  0  0
   -0.8578    1.6720    0.0000 N   0  0  0  0  0  0  0  0  0  0  0  0
    0.0100    0.1730    0.0000 C   0  0  0  0  0  0  0  0  0  0  0  0
    0.9230    0.5808    0.0000 N   0  0  0  0  0  0  0  0  0  0  0  0
    1.5930   -0.1616    0.0000 C   0  0  0  0  0  0  0  0  0  0  0  0
    1.0940   -1.0282    0.0000 C   0  0  0  0  0  0  0  0  0  0  0  0
    0.1156   -0.8212    0.0000 N   0  0  0  0  0  0  0  0  0  0  0  0
  1  2  1  0
  2  3  1  0
  2  4  1  0
  4  5  1  0
  4  6  1  0
  6  7  2  0
  7  8  1  0
  8  9  2  0
  9 10  1  0
 10  6  1  0
M  END

> <chembl_id>
CHEMBL4581560

> <chembl_pref_name>
None

$$$$

     RDKit          2D

 10 10  0  0  0  0  0  0  0  0999 V2000
    6.7959   -6.5858    0.0000 N   0  0  0  0  0  0  0  0  0  0  0  0
    7.5104   -6.9983    0.0000 C   0  0  0  0  0  0  0  0  0  0  0  0
    7.5104   -7.8233    0.0000 C   0  0  0  0  0  0  0  0  0  0  0  0
    8.2248   -8.2358    0.0000 C   0  0  0  0  0  0  0  0  0  0  0  0
    8.2248   -9.0608    0.0000 C   0  0  0  0  0  0  0  0  0  0  0  0
    7.5104   -9.4733    0.0000 C   0  0  0  0  0  0  0  0  0  0  0  0
    6.7959   -9.0608    0.0000 C   0  0  0  0  0  0  0  0  0  0  0  0
    6.7959   -8.2358    0.0000 C   0  0  0  0  0  0  0  0  0  0  0  0
    8.9393   -7.8233    0.0000 C   0  0  0  0  0  0  0  0  0  0  0  0
    9.6538   -8.2358    0.0000 O   0  0  0  0  0  0  0  0  0  0  0  0
  2  3  1  0
  3  4  1  0
  4  5  2  0
  5  6  1  0
  6  7  2  0
  7  8  1  0
  3  8  2  0
  1  2  1  0
  9 10  1  0
  4  9  1  0
M  END

> <chembl_id>
CHEMBL3139541

> <chembl_pref_name>
None

$$$$

     RDKit          2D

 10 10  0  0  0  0  0  0  0  0999 V2000
   -0.5174    0.7589    0.0000 N   0  0  0  0  0  0  0  0  0  0  0  0
   -0.0324    0.0915    0.0000 C   0  0  0  0  0  0  0  0  0  0  0  0
   -0.5174   -0.5760    0.0000 C   0  0  0  0  0  0  0  0  0  0  0  0
   -1.3020   -0.3210    0.0000 C   0  0  0  0  0  0  0  0  0  0  0  0
   -1.3020    0.5040    0.0000 C   0  0  0  0  0  0  0  0  0  0  0  0
    0.7926    0.0915    0.0000 C   0  0  0  0  0  0  0  0  0  0  0  0
    1.2051   -0.6230    0.0000 O   0  0  0  0  0  0  0  0  0  0  0  0
    1.2051    0.8059    0.0000 O   0  0  0  0  0  0  0  0  0  0  0  0
   -1.9694   -0.8059    0.0000 C   0  0  0  0  0  0  0  0  0  0  0  0
   -2.7231   -0.4704    0.0000 N   0  0  0  0  0  0  0  0  0  0  0  0
  1  2  1  0
  2  3  2  0
  3  4  1  0
  4  5  2  0
  1  5  1  0
  6  7  2  0
  6  8  1  0
  2  6  1  0
  9 10  1  0
  4  9  1  0
M  END

> <chembl_id>
CHEMBL2220355

> <chembl_pref_name>
None

$$$$

     RDKit          2D

 11 12  0  0  0  0  0  0  0  0999 V2000
    0.4706    1.7388    0.0000 N   0  0  0  0  0  0  0  0  0  0  0  0
    0.4698    0.7388    0.0000 C   0  0  0  0  0  0  0  0  0  0  0  0
    1.3354    0.2382    0.0000 C   0  0  0  0  0  0  0  0  0  0  0  0
    1.3346   -0.7618    0.0000 C   0  0  0  0  0  0  0  0  0  0  0  0
    0.4682   -1.2612    0.0000 O   0  0  0  0  0  0  0  0  0  0  0  0
   -0.3974   -0.7604    0.0000 C   0  0  0  0  0  0  0  0  0  0  0  0
   -1.2638   -1.2598    0.0000 C   0  0  0  0  0  0  0  0  0  0  0  0
   -2.1294   -0.7592    0.0000 C   0  0  0  0  0  0  0  0  0  0  0  0
   -2.1286    0.2408    0.0000 C   0  0  0  0  0  0  0  0  0  0  0  0
   -1.2622    0.7402    0.0000 C   0  0  0  0  0  0  0  0  0  0  0  0
   -0.3966    0.2396    0.0000 C   0  0  0  0  0  0  0  0  0  0  0  0
  1  2  1  0
  2  3  1  0
  3  4  1  0
  4  5  1  0
  5  6  1  0
  6  7  2  0
  7  8  1  0
  8  9  2  0
  9 10  1  0
 10 11  2  0
 11  2  1  0
 11  6  1  0
M  END

> <chembl_id>
CHEMBL4563095

> <chembl_pref_name>
None

$$$$

     RDKit          2D

  8  8  0  0  0  0  0  0  0  0999 V2000
   -3.5901   -9.1261    0.0000 N   0  0  0  0  0  0  0  0  0  0  0  0
   -2.9177   -8.6481    0.0000 C   0  0  0  0  0  0  0  0  0  0  0  0
   -3.1627   -7.8602    0.0000 N   0  0  0  0  0  0  0  0  0  0  0  0
   -3.9902   -7.8512    0.0000 C   0  0  0  0  0  0  0  0  0  0  0  0
   -4.2503   -8.6333    0.0000 C   0  0  0  0  0  0  0  0  0  0  0  0
   -2.1338   -8.9140    0.0000 C   0  0  0  0  0  0  0  0  0  0  0  0
   -1.9716   -9.7229    0.0000 O   0  0  0  0  0  0  0  0  0  0  0  0
   -1.5144   -8.3691    0.0000 O   0  0  0  0  0  0  0  0  0  0  0  0
  3  4  1  0
  4  5  2  0
  5  1  1  0
  1  2  1  0
  2  3  2  0
  6  7  1  0
  6  8  2  0
  2  6  1  0
M  END

> <chembl_id>
CHEMBL1789772

> <chembl_pref_name>
None

$$$$

     RDKit          2D

 11 11  0  0  0  0  0  0  0  0999 V2000
    2.4686   -0.7346    0.0000 C   0  0  0  0  0  0  0  0  0  0  0  0
    1.6030   -1.2354    0.0000 O   0  0  0  0  0  0  0  0  0  0  0  0
    0.7366   -0.7360    0.0000 C   0  0  0  0  0  0  0  0  0  0  0  0
   -0.1290   -1.2366    0.0000 N   0  0  0  0  0  0  0  0  0  0  0  0
   -0.9954   -0.7374    0.0000 C   0  0  0  0  0  0  0  0  0  0  0  0
   -1.8610   -1.2380    0.0000 C   0  0  0  0  0  0  0  0  0  0  0  0
   -0.9962    0.2626    0.0000 C   0  0  0  0  0  0  0  0  0  0  0  0
   -0.1306    0.7634    0.0000 C   0  0  0  0  0  0  0  0  0  0  0  0
    0.7358    0.2640    0.0000 C   0  0  0  0  0  0  0  0  0  0  0  0
    1.6014    0.7646    0.0000 C   0  0  0  0  0  0  0  0  0  0  0  0
    2.4670    1.2654    0.0000 N   0  0  0  0  0  0  0  0  0  0  0  0
  1  2  1  0
  2  3  1  0
  3  4  2  0
  4  5  1  0
  5  6  1  0
  5  7  2  0
  7  8  1  0
  8  9  2  0
  9 10  1  0
 10 11  3  0
  9  3  1  0
M  END

> <chembl_id>
CHEMBL4516256

> <chembl_pref_name>
None

$$$$

     RDKit          2D

  9  9  0  0  0  0  0  0  0  0999 V2000
    1.2990   -0.7500    0.0000 N   0  0  0  0  0  0  0  0  0  0  0  0
    1.2990    0.7500    0.0000 C   0  0  0  0  0  0  0  0  0  0  0  0
    2.3383    1.3500    0.0000 C   0  0  0  0  0  0  0  0  0  0  0  0
    0.0000    1.5000    0.0000 N   0  0  0  0  0  0  0  0  0  0  0  0
    0.0000   -1.5000    0.0000 C   0  0  0  0  0  0  0  0  0  0  0  0
   -1.2990    0.7500    0.0000 C   0  0  0  0  0  0  0  0  0  0  0  0
   -1.2990   -0.7500    0.0000 N   0  0  0  0  0  0  0  0  0  0  0  0
   -2.3383    1.3500    0.0000 N   0  0  0  0  0  0  0  0  0  0  0  0
    0.0000   -2.7000    0.0000 N   0  0  0  0  0  0  0  0  0  0  0  0
  2  4  2  0
  6  4  1  0
  3  2  1  0
  2  1  1  0
  5  1  2  0
  5  7  1  0
  5  9  1  0
  6  7  2  0
  6  8  1  0
M  END

> <chembl_id>
CHEMBL1738722

> <chembl_pref_name>
None

$$$$

     RDKit          2D

 10 10  0  0  0  0  0  0  0  0999 V2000
    0.7126   -1.2406    0.0000 C   0  0  0  0  0  0  0  0  0  0  0  0
    1.4282   -1.6446    0.0000 C   0  0  0  0  0  0  0  0  0  0  0  0
    0.0000   -1.6446    0.0000 C   0  0  0  0  0  0  0  0  0  0  0  0
    1.4282   -2.4698    0.0000 C   0  0  0  0  0  0  0  0  0  0  0  0
    0.7126   -0.4155    0.0000 C   0  0  0  0  0  0  0  0  0  0  0  0
    2.1408   -1.2406    0.0000 C   0  0  0  0  0  0  0  0  0  0  0  0
    0.0000   -2.4698    0.0000 C   0  0  0  0  0  0  0  0  0  0  0  0
    0.7126   -2.8852    0.0000 C   0  0  0  0  0  0  0  0  0  0  0  0
    1.4282    0.0000    0.0000 C   0  0  0  0  0  0  0  0  0  0  0  0
    2.8563   -1.6446    0.0000 C   0  0  0  0  0  0  0  0  0  0  0  0
  1  2  1  0
  1  3  2  0
  1  5  1  0
  2  4  2  0
  2  6  1  0
  3  7  1  0
  4  8  1  0
  5  9  1  0
  6 10  1  0
  7  8  2  0
M  END

> <chembl_id>
CHEMBL3186870

> <chembl_pref_name>
None

$$$$

     RDKit          2D

  9  9  0  0  0  0  0  0  0  0999 V2000
   15.5541   -7.8577    0.0000 N   0  0  0  0  0  0  0  0  0  0  0  0
   16.3647   -7.9978    0.0000 N   0  0  0  0  0  0  0  0  0  0  0  0
   16.7477   -7.2791    0.0000 C   0  0  0  0  0  0  0  0  0  0  0  0
   16.1732   -6.6781    0.0000 O   0  0  0  0  0  0  0  0  0  0  0  0
   15.4317   -7.0439    0.0000 C   0  0  0  0  0  0  0  0  0  0  0  0
   14.7175   -6.6289    0.0000 C   0  0  0  0  0  0  0  0  0  0  0  0
   14.0020   -7.0393    0.0000 N   0  0  0  0  0  0  0  0  0  0  0  0
   13.2886   -6.6248    0.0000 C   0  0  0  0  0  0  0  0  0  0  0  0
   17.5650   -7.1666    0.0000 S   0  0  0  0  0  0  0  0  0  0  0  0
  5  1  2  0
  1  2  1  0
  5  6  1  0
  6  7  1  0
  7  8  1  0
  2  3  2  0
  3  9  1  0
  3  4  1  0
  4  5  1  0
M  END

> <chembl_id>
CHEMBL1186325

> <chembl_pref_name>
None

$$$$

     RDKit          2D

 10 10  0  0  0  0  0  0  0  0999 V2000
    4.0917   -2.0250    0.0000 N   0  0  0  0  0  0  0  0  0  0  0  0
    3.5750   -1.7292    0.0000 C   0  0  0  0  0  0  0  0  0  0  0  0
    3.0542   -2.0292    0.0000 C   0  0  0  0  0  0  0  0  0  0  0  0
    4.3875   -2.5417    0.0000 C   0  0  0  0  0  0  0  0  0  0  0  0
    3.0542   -2.6292    0.0000 C   0  0  0  0  0  0  0  0  0  0  0  0
    2.5417   -1.7292    0.0000 C   0  0  0  0  0  0  0  0  0  0  0  0
    4.0792   -3.0542    0.0000 C   0  0  0  0  0  0  0  0  0  0  0  0
    2.0250   -2.0292    0.0000 C   0  0  0  0  0  0  0  0  0  0  0  0
    2.5417   -2.9292    0.0000 C   0  0  0  0  0  0  0  0  0  0  0  0
    2.0250   -2.6292    0.0000 C   0  0  0  0  0  0  0  0  0  0  0  0
  2  1  1  0
  3  2  1  0
  4  1  1  0
  5  3  1  0
  6  3  2  0
  7  4  1  0
  8  6  1  0
  9  5  2  0
 10  9  1  0
  8 10  2  0
M  END

> <chembl_id>
CHEMBL1178178

> <chembl_pref_name>
None

$$$$

     RDKit          2D

 11 11  0  0  0  0  0  0  0  0999 V2000
    1.2990   -0.7500    0.0000 C   0  0  0  0  0  0  0  0  0  0  0  0
    1.2990    0.7500    0.0000 C   0  0  0  0  0  0  0  0  0  0  0  0
    0.0000    1.5000    0.0000 C   0  0  0  0  0  0  0  0  0  0  0  0
   -1.2990    0.7500    0.0000 C   0  0  0  0  0  0  0  0  0  0  0  0
   -1.2990   -0.7500    0.0000 C   0  0  0  0  0  0  0  0  0  0  0  0
    0.0000   -1.5000    0.0000 C   0  0  0  0  0  0  0  0  0  0  0  0
   -2.5972   -1.5031    0.0000 C   0  0  0  0  0  0  0  0  0  0  0  0
   -2.5951   -3.0039    0.0000 C   0  0  0  0  0  0  0  0  0  0  0  0
   -3.8933   -3.7570    0.0000 N   0  0  0  0  0  0  0  0  0  0  0  0
   -3.6375   -0.9049    0.0000 C   0  0  0  0  0  0  0  0  0  0  0  0
   -3.8916   -4.9570    0.0000 N   0  0  0  0  0  0  0  0  0  0  0  0
  1  2  2  0
  2  3  1  0
  3  4  2  0
  4  5  1  0
  1  6  1  0
  5  6  2  0
  5  7  1  0
  7  8  1  0
  8  9  1  0
  7 10  2  0
  9 11  1  0
M  END

> <chembl_id>
CHEMBL1188319

> <chembl_pref_name>
None

$$$$

     RDKit          2D

 11 12  0  0  0  0  0  0  0  0999 V2000
   12.6525   -4.1290    0.0000 C   0  0  0  0  0  0  0  0  0  0  0  0
   12.6513   -4.9564    0.0000 C   0  0  0  0  0  0  0  0  0  0  0  0
   13.3662   -5.3692    0.0000 C   0  0  0  0  0  0  0  0  0  0  0  0
   14.0826   -4.9559    0.0000 C   0  0  0  0  0  0  0  0  0  0  0  0
   14.0797   -4.1254    0.0000 C   0  0  0  0  0  0  0  0  0  0  0  0
   13.3644   -3.7163    0.0000 C   0  0  0  0  0  0  0  0  0  0  0  0
   14.7912   -3.7080    0.0000 C   0  0  0  0  0  0  0  0  0  0  0  0
   15.6162   -3.7050    0.0000 C   0  0  0  0  0  0  0  0  0  0  0  0
   15.2011   -2.9921    0.0000 C   0  0  0  0  0  0  0  0  0  0  0  0
   16.3323   -4.1148    0.0000 N   0  0  0  0  0  0  0  0  0  0  0  0
   15.1980   -2.1671    0.0000 C   0  0  0  0  0  0  0  0  0  0  0  0
  1  2  2  0
  2  3  1  0
  3  4  2  0
  4  5  1  0
  5  6  2  0
  6  1  1  0
  8  7  1  0
  9  8  1  0
  7  9  1  0
  7  5  1  1
  8 10  1  1
  9 11  1  1
M  END


> <chembl_id>
CHEMBL4300854

> <chembl_pref_name>
None

$$$$

     RDKit          2D

 10 10  0  0  0  0  0  0  0  0999 V2000
    0.5584   -0.9085    0.0000 O   0  0  0  0  0  0  0  0  0  0  0  0
    3.4505    0.0000    0.0000 O   0  0  0  0  0  0  0  0  0  0  0  0
    1.3044   -1.2377    0.0000 C   0  0  0  0  0  0  0  0  0  0  0  0
    1.2252   -2.0628    0.0000 C   0  0  0  0  0  0  0  0  0  0  0  0
    2.0253   -0.8293    0.0000 C   0  0  0  0  0  0  0  0  0  0  0  0
    0.0000   -1.5169    0.0000 C   0  0  0  0  0  0  0  0  0  0  0  0
    0.4084   -2.2336    0.0000 C   0  0  0  0  0  0  0  0  0  0  0  0
    2.7421   -1.2377    0.0000 C   0  0  0  0  0  0  0  0  0  0  0  0
    3.4505   -0.8293    0.0000 C   0  0  0  0  0  0  0  0  0  0  0  0
    4.1673   -1.2377    0.0000 C   0  0  0  0  0  0  0  0  0  0  0  0
  1  3  1  0
  1  6  1  0
  2  9  2  0
  3  4  2  0
  3  5  1  0
  4  7  1  0
  5  8  2  3
  6  7  2  0
  8  9  1  0
  9 10  1  0
M  END

> <chembl_id>
CHEMBL3185513

> <chembl_pref_name>
None

$$$$

     RDKit          2D

 10 10  0  0  0  0  0  0  0  0999 V2000
   -1.3708   -3.0125    0.0000 C   0  0  0  0  0  0  0  0  0  0  0  0
   -2.0833   -3.4292    0.0000 C   0  0  0  0  0  0  0  0  0  0  0  0
   -2.8083   -3.0042    0.0000 N   0  0  0  0  0  0  0  0  0  0  0  0
   -1.3708   -2.1792    0.0000 O   0  0  0  0  0  0  0  0  0  0  0  0
   -0.6458   -3.4292    0.0000 N   0  0  0  0  0  0  0  0  0  0  0  0
   -3.5250   -3.4250    0.0000 C   0  0  0  0  0  0  0  0  0  0  0  0
   -2.0833   -4.2542    0.0000 C   0  0  0  0  0  0  0  0  0  0  0  0
   -0.6458   -4.2542    0.0000 C   0  0  0  0  0  0  0  0  0  0  0  0
   -3.5250   -4.2542    0.0000 C   0  0  0  0  0  0  0  0  0  0  0  0
   -2.8000   -4.6667    0.0000 C   0  0  0  0  0  0  0  0  0  0  0  0
  2  1  1  0
  3  2  2  0
  4  1  2  0
  5  1  1  0
  6  3  1  0
  7  2  1  0
  8  5  1  0
  9 10  1  0
 10  7  2  0
  9  6  2  0
M  END

> <chembl_id>
CHEMBL276719

> <chembl_pref_name>
None

$$$$

     RDKit          2D

 11 12  0  0  0  0  0  0  0  0999 V2000
    5.0750   -3.2542    0.0000 N   0  0  0  0  0  0  0  0  0  0  0  0
    3.9542   -3.5625    0.0000 C   0  0  0  0  0  0  0  0  0  0  0  0
    4.4750   -3.2542    0.0000 C   0  0  0  0  0  0  0  0  0  0  0  0
    3.4375   -4.4667    0.0000 N   0  0  0  0  0  0  0  0  0  0  0  0
    3.9542   -4.1667    0.0000 C   0  0  0  0  0  0  0  0  0  0  0  0
    5.2625   -2.6792    0.0000 C   0  0  0  0  0  0  0  0  0  0  0  0
    3.4375   -3.2625    0.0000 C   0  0  0  0  0  0  0  0  0  0  0  0
    2.9167   -4.1667    0.0000 C   0  0  0  0  0  0  0  0  0  0  0  0
    4.2875   -2.6792    0.0000 C   0  0  0  0  0  0  0  0  0  0  0  0
    2.9167   -3.5625    0.0000 C   0  0  0  0  0  0  0  0  0  0  0  0
    4.7750   -2.3292    0.0000 C   0  0  0  0  0  0  0  0  0  0  0  0
  2  3  1  0
  3  1  1  0
  4  5  2  0
  5  2  1  0
  6  1  1  0
  7  2  2  0
  8 10  2  0
  9  3  1  0
 10  7  1  0
 11  6  1  0
  9 11  1  0
  4  8  1  0
M  END

> <chembl_id>
CHEMBL1132

> <chembl_pref_name>
NORNICOTINE

$$$$

     RDKit          2D

  7  7  0  0  0  0  0  0  0  0999 V2000
   19.1959  -14.2883    0.0000 S   0  0  0  0  0  0  0  0  0  0  0  0
   18.4168  -14.5401    0.0000 C   0  0  0  0  0  0  0  0  0  0  0  0
   17.9378  -13.8768    0.0000 N   0  0  0  0  0  0  0  0  0  0  0  0
   18.4168  -13.2175    0.0000 C   0  0  0  0  0  0  0  0  0  0  0  0
   19.1959  -13.4693    0.0000 C   0  0  0  0  0  0  0  0  0  0  0  0
   18.1650  -12.4384    0.0000 C   0  0  0  0  0  0  0  0  0  0  0  0
   17.1188  -13.8768    0.0000 C   0  0  0  0  0  0  0  0  0  0  0  0
  1  2  1  0
  2  3  2  0
  3  4  1  0
  4  5  2  0
  1  5  1  0
  4  6  1  0
  3  7  1  0
M  CHG  1   3   1
M  END

> <chembl_id>
CHEMBL1232387

> <chembl_pref_name>
None

$$$$

     RDKit          2D

  8  8  0  0  0  0  0  0  0  0999 V2000
    6.0415   -9.4004    0.0000 C   0  0  0  0  0  0  0  0  0  0  0  0
    6.7089   -9.8853    0.0000 N   0  0  0  0  0  0  0  0  0  0  0  0
    6.4540  -10.6700    0.0000 C   0  0  0  0  0  0  0  0  0  0  0  0
    5.6290  -10.6700    0.0000 C   0  0  0  0  0  0  0  0  0  0  0  0
    5.3740   -9.8853    0.0000 N   0  0  0  0  0  0  0  0  0  0  0  0
    6.0415   -8.5754    0.0000 C   0  0  0  0  0  0  0  0  0  0  0  0
    6.7560   -8.1629    0.0000 N   0  0  0  0  0  0  0  0  0  0  0  0
    6.7560   -7.3379    0.0000 O   0  0  0  0  0  0  0  0  0  0  0  0
  1  2  2  0
  2  3  1  0
  3  4  2  0
  4  5  1  0
  1  5  1  0
  1  6  1  0
  7  8  1  0
  6  7  2  0
M  END

> <chembl_id>
CHEMBL3559405

> <chembl_pref_name>
None

$$$$

     RDKit          2D

 11 11  0  0  0  0  0  0  0  0999 V2000
   -2.0775    0.0625    0.0000 O   0  0  0  0  0  0  0  0  0  0  0  0
   -3.1574   -0.7222    0.0000 N   0  0  0  0  0  0  0  0  0  0  0  0
   -2.7449    1.3724    0.0000 N   0  0  0  0  0  0  0  0  0  0  0  0
   -4.9816    0.5723    0.0000 N   0  0  0  0  0  0  0  0  0  0  0  0
   -3.4124    0.0625    0.0000 C   0  0  0  0  0  0  0  0  0  0  0  0
   -2.3324   -0.7222    0.0000 C   0  0  0  0  0  0  0  0  0  0  0  0
   -2.7449    0.5474    0.0000 C   0  0  0  0  0  0  0  0  0  0  0  0
   -1.8475   -1.3896    0.0000 C   0  0  0  0  0  0  0  0  0  0  0  0
   -4.1970    0.3174    0.0000 C   0  0  0  0  0  0  0  0  0  0  0  0
   -1.0270   -1.3034    0.0000 C   0  0  0  0  0  0  0  0  0  0  0  0
   -2.1831   -2.1433    0.0000 C   0  0  0  0  0  0  0  0  0  0  0  0
  1  6  1  0
  1  7  1  0
  2  5  1  0
  2  6  2  0
  3  7  1  0
  4  9  3  0
  5  7  2  0
  5  9  1  0
  6  8  1  0
  8 10  2  0
  8 11  1  0
M  END

> <chembl_id>
CHEMBL1976548

> <chembl_pref_name>
None

$$$$

     RDKit          2D

 10 11  0  0  0  0  0  0  0  0999 V2000
   -3.8447    1.2287    0.0000 O   0  0  0  0  0  0  0  0  0  0  0  0
   -3.1800    1.7174    0.0000 C   0  0  0  0  0  0  0  0  0  0  0  0
   -3.4376    2.5012    0.0000 C   0  0  0  0  0  0  0  0  0  0  0  0
   -4.2651    2.4969    0.0000 C   0  0  0  0  0  0  0  0  0  0  0  0
   -4.5126    1.7109    0.0000 C   0  0  0  0  0  0  0  0  0  0  0  0
   -2.3970    1.4621    0.0000 C   0  0  0  0  0  0  0  0  0  0  0  0
   -2.1385    0.6786    0.0000 C   0  0  0  0  0  0  0  0  0  0  0  0
   -1.3135    0.6823    0.0000 C   0  0  0  0  0  0  0  0  0  0  0  0
   -1.0621    1.4681    0.0000 C   0  0  0  0  0  0  0  0  0  0  0  0
   -1.7317    1.9499    0.0000 N   0  0  0  0  0  0  0  0  0  0  0  0
  5  1  1  0
  6  7  1  0
  1  2  1  0
  2  3  2  0
  3  4  1  0
  4  5  2  0
  7  8  1  0
  8  9  1  0
  9 10  1  0
 10  6  1  0
  2  6  1  0
M  END

> <chembl_id>
CHEMBL461087

> <chembl_pref_name>
None

$$$$

     RDKit          2D

  8  8  0  0  0  0  0  0  0  0999 V2000
   10.4503   -7.0913    0.0000 C   0  0  0  0  0  0  0  0  0  0  0  0
   10.4491   -7.9182    0.0000 C   0  0  0  0  0  0  0  0  0  0  0  0
   11.1635   -8.3307    0.0000 C   0  0  0  0  0  0  0  0  0  0  0  0
   11.8795   -7.9177    0.0000 C   0  0  0  0  0  0  0  0  0  0  0  0
   11.8766   -7.0877    0.0000 C   0  0  0  0  0  0  0  0  0  0  0  0
   11.1617   -6.6788    0.0000 C   0  0  0  0  0  0  0  0  0  0  0  0
   11.1592   -5.8543    0.0000 N   0  0  0  0  0  0  0  0  0  0  0  0
   12.5941   -8.3288    0.0000 F   0  0  0  0  0  0  0  0  0  0  0  0
  4  5  1  0
  2  3  1  0
  5  6  2  0
  6  1  1  0
  1  2  2  0
  6  7  1  0
  3  4  2  0
  4  8  1  0
M  END

> <chembl_id>
CHEMBL58888

> <chembl_pref_name>
None

$$$$

     RDKit          2D

 11 11  0  0  0  0  0  0  0  0999 V2000
   -0.3126   -0.2412    0.0000 O   0  0  0  0  0  0  0  0  0  0  0  0
    1.1163   -0.2412    0.0000 N   0  0  0  0  0  0  0  0  0  0  0  0
    1.1163   -1.0662    0.0000 C   0  0  0  0  0  0  0  0  0  0  0  0
    0.4019    0.1713    0.0000 C   0  0  0  0  0  0  0  0  0  0  0  0
    1.8308   -1.4787    0.0000 C   0  0  0  0  0  0  0  0  0  0  0  0
    0.4019   -1.4787    0.0000 C   0  0  0  0  0  0  0  0  0  0  0  0
    1.8308   -2.3037    0.0000 C   0  0  0  0  0  0  0  0  0  0  0  0
    0.4019   -2.3037    0.0000 C   0  0  0  0  0  0  0  0  0  0  0  0
    1.1163   -2.7162    0.0000 C   0  0  0  0  0  0  0  0  0  0  0  0
    0.4019    0.9963    0.0000 C   0  0  0  0  0  0  0  0  0  0  0  0
   -0.3126    1.4088    0.0000 C   0  0  0  0  0  0  0  0  0  0  0  0
  1  4  2  0
  2  3  1  0
  2  4  1  0
  3  5  2  0
  3  6  1  0
  4 10  1  0
  5  7  1  0
  6  8  2  0
  7  9  2  0
  8  9  1  0
 10 11  1  0
M  END

> <chembl_id>
CHEMBL1870645

> <chembl_pref_name>
None

$$$$

     RDKit          2D

  9  9  0  0  0  0  0  0  0  0999 V2000
    0.7417   -0.3000    0.0000 C   0  0  0  0  0  0  0  0  0  0  0  0
    1.2292   -0.6500    0.0000 N   0  0  0  0  0  0  0  0  0  0  0  0
    0.2542   -0.6500    0.0000 N   0  0  0  0  0  0  0  0  0  0  0  0
    1.0417   -1.2250    0.0000 C   0  0  0  0  0  0  0  0  0  0  0  0
    0.4417   -1.2250    0.0000 C   0  0  0  0  0  0  0  0  0  0  0  0
    0.7417    0.3000    0.0000 O   0  0  0  0  0  0  0  0  0  0  0  0
    1.8000   -0.4667    0.0000 C   0  0  0  0  0  0  0  0  0  0  0  0
   -0.3125   -0.4667    0.0000 C   0  0  0  0  0  0  0  0  0  0  0  0
    1.3917   -1.7042    0.0000 C   0  0  0  0  0  0  0  0  0  0  0  0
  2  1  1  0
  3  1  1  0
  4  2  1  0
  5  3  1  0
  6  1  2  0
  7  2  1  0
  8  3  1  0
  9  4  1  0
  4  5  2  0
M  END

> <chembl_id>
CHEMBL350459

> <chembl_pref_name>
None

$$$$

     RDKit          2D

  9  9  0  0  0  0  0  0  0  0999 V2000
    6.4173  -21.0391    0.0000 C   0  0  0  0  0  0  0  0  0  0  0  0
    5.6541  -21.4329    0.0000 C   0  0  0  0  0  0  0  0  0  0  0  0
    5.5067  -22.2285    0.0000 C   0  0  0  0  0  0  0  0  0  0  0  0
    7.1711  -21.3974    0.0000 C   0  0  0  0  0  0  0  0  0  0  0  0
    7.3501  -22.2027    0.0000 C   0  0  0  0  0  0  0  0  0  0  0  0
    6.8106  -22.8755    0.0000 C   0  0  0  0  0  0  0  0  0  0  0  0
    6.0129  -22.8685    0.0000 C   0  0  0  0  0  0  0  0  0  0  0  0
    7.8206  -20.8796    0.0000 O   0  0  0  0  0  0  0  0  0  0  0  0
    6.4036  -20.2086    0.0000 O   0  0  0  0  0  0  0  0  0  0  0  0
  2  3  2  0
  1  4  1  0
  5  6  1  0
  6  7  2  0
  7  3  1  0
  4  5  2  0
  4  8  1  0
  1  2  1  0
  1  9  2  0
M  END

> <chembl_id>
CHEMBL121188

> <chembl_pref_name>
TROPOLONE

$$$$

     RDKit          2D

 10 11  0  0  0  0  0  0  0  0999 V2000
   -4.4289  -21.6526    0.0000 C   0  0  0  0  0  0  0  0  0  0  0  0
   -4.4289  -22.4775    0.0000 N   0  0  0  0  0  0  0  0  0  0  0  0
   -3.7168  -22.8858    0.0000 C   0  0  0  0  0  0  0  0  0  0  0  0
   -3.7168  -21.2359    0.0000 C   0  0  0  0  0  0  0  0  0  0  0  0
   -3.0049  -21.6526    0.0000 C   0  0  0  0  0  0  0  0  0  0  0  0
   -3.0004  -22.4785    0.0000 C   0  0  0  0  0  0  0  0  0  0  0  0
   -2.2134  -22.7294    0.0000 O   0  0  0  0  0  0  0  0  0  0  0  0
   -1.7316  -22.0586    0.0000 N   0  0  0  0  0  0  0  0  0  0  0  0
   -2.2208  -21.3931    0.0000 C   0  0  0  0  0  0  0  0  0  0  0  0
   -1.9703  -20.6071    0.0000 O   0  0  0  0  0  0  0  0  0  0  0  0
  1  2  1  0
  1  4  1  0
  2  3  1  0
  6  7  1  0
  7  8  1  0
  8  9  2  0
  9  5  1  0
  3  6  1  0
  9 10  1  0
  5  4  1  0
  5  6  2  0
M  END

> <chembl_id>
CHEMBL312443

> <chembl_pref_name>
GABOXADOL

$$$$

     RDKit          2D

 10 10  0  0  0  0  0  0  0  0999 V2000
    0.9854    0.7671    0.0000 O   0  0  0  0  0  0  0  0  0  0  0  0
   -0.4436    0.7671    0.0000 O   0  0  0  0  0  0  0  0  0  0  0  0
    0.2709   -2.1204    0.0000 N   0  0  0  0  0  0  0  0  0  0  0  0
   -1.1581   -0.4704    0.0000 N   0  0  0  0  0  0  0  0  0  0  0  0
    0.2709   -0.4704    0.0000 C   0  0  0  0  0  0  0  0  0  0  0  0
   -0.4436   -0.8829    0.0000 C   0  0  0  0  0  0  0  0  0  0  0  0
    0.2709    0.3546    0.0000 C   0  0  0  0  0  0  0  0  0  0  0  0
    0.9854   -0.8829    0.0000 C   0  0  0  0  0  0  0  0  0  0  0  0
   -0.4436   -1.7079    0.0000 C   0  0  0  0  0  0  0  0  0  0  0  0
    0.9854   -1.7079    0.0000 C   0  0  0  0  0  0  0  0  0  0  0  0
  1  7  2  0
  2  7  1  0
  3  9  1  0
  3 10  2  0
  4  6  1  0
  5  6  1  0
  5  7  1  0
  5  8  2  0
  6  9  2  0
  8 10  1  0
M  END

> <chembl_id>
CHEMBL1383671

> <chembl_pref_name>
None

$$$$

     RDKit          2D

 10 10  0  0  0  0  0  0  0  0999 V2000
    7.7146   -9.0586    0.0000 C   0  0  0  0  0  0  0  0  0  0  0  0
    6.9982   -9.4710    0.0000 C   0  0  0  0  0  0  0  0  0  0  0  0
    6.9979  -10.2999    0.0000 C   0  0  0  0  0  0  0  0  0  0  0  0
    7.7133  -10.7132    0.0000 C   0  0  0  0  0  0  0  0  0  0  0  0
    8.4267  -10.2999    0.0000 C   0  0  0  0  0  0  0  0  0  0  0  0
    8.4275   -9.4722    0.0000 C   0  0  0  0  0  0  0  0  0  0  0  0
    9.1426   -9.0609    0.0000 C   0  0  0  0  0  0  0  0  0  0  0  0
    9.8564   -9.4745    0.0000 C   0  0  0  0  0  0  0  0  0  0  0  0
    9.1412  -10.7123    0.0000 N   0  0  0  0  0  0  0  0  0  0  0  0
   10.5715   -9.0633    0.0000 O   0  0  0  0  0  0  0  0  0  0  0  0
  1  2  2  0
  2  3  1  0
  3  4  2  0
  4  5  1  0
  5  6  2  0
  6  1  1  0
  6  7  1  0
  7  8  1  0
  5  9  1  0
  8 10  1  0
M  END

> <chembl_id>
CHEMBL4095436

> <chembl_pref_name>
None

$$$$

     RDKit          2D

  9  9  0  0  0  0  0  0  0  0999 V2000
   -0.7583   -1.3250    0.0000 C   0  0  0  0  0  0  0  0  0  0  0  0
   -1.1625   -0.6042    0.0000 C   0  0  0  0  0  0  0  0  0  0  0  0
   -1.9875   -0.5917    0.0000 C   0  0  0  0  0  0  0  0  0  0  0  0
   -1.1708   -2.0292    0.0000 C   0  0  0  0  0  0  0  0  0  0  0  0
    0.0750   -1.3292    0.0000 C   0  0  0  0  0  0  0  0  0  0  0  0
   -0.7375    0.1083    0.0000 C   0  0  0  0  0  0  0  0  0  0  0  0
   -2.3875    0.1333    0.0000 C   0  0  0  0  0  0  0  0  0  0  0  0
    0.0875    0.0958    0.0000 C   0  0  0  0  0  0  0  0  0  0  0  0
    0.4917   -0.6167    0.0000 C   0  0  0  0  0  0  0  0  0  0  0  0
  2  1  2  0
  3  2  1  0
  4  1  1  0
  5  1  1  0
  6  2  1  0
  7  3  1  0
  8  9  1  0
  9  5  2  0
  6  8  2  0
M  END

> <chembl_id>
CHEMBL364233

> <chembl_pref_name>
None

$$$$

     RDKit          2D

  9  9  0  0  0  0  0  0  0  0999 V2000
    1.5314   -0.0182    0.0000 O   0  0  0  0  0  0  0  0  0  0  0  0
    0.0794    0.2118    0.0000 N   0  0  0  0  0  0  0  0  0  0  0  0
    0.4919   -1.0577    0.0000 N   0  0  0  0  0  0  0  0  0  0  0  0
   -0.3331   -1.0577    0.0000 N   0  0  0  0  0  0  0  0  0  0  0  0
    0.0794    1.0368    0.0000 N   0  0  0  0  0  0  0  0  0  0  0  0
    0.7468   -0.2731    0.0000 C   0  0  0  0  0  0  0  0  0  0  0  0
   -0.5881   -0.2731    0.0000 C   0  0  0  0  0  0  0  0  0  0  0  0
   -1.3727   -0.0182    0.0000 C   0  0  0  0  0  0  0  0  0  0  0  0
   -0.6351    1.4493    0.0000 C   0  0  0  0  0  0  0  0  0  0  0  0
  1  6  2  0
  2  5  1  0
  2  6  1  0
  2  7  1  0
  3  4  1  0
  3  6  1  0
  4  7  2  0
  5  9  1  0
  7  8  1  0
M  END

> <chembl_id>
CHEMBL2003329

> <chembl_pref_name>
None

$$$$

     RDKit          2D

 10 10  0  0  0  0  0  0  0  0999 V2000
    0.1274    1.4349    0.0000 N   0  0  0  0  0  0  0  0  0  0  0  0
    0.1274    0.6099    0.0000 C   0  0  0  0  0  0  0  0  0  0  0  0
   -0.5871    0.1974    0.0000 O   0  0  0  0  0  0  0  0  0  0  0  0
    0.8419    0.1974    0.0000 C   0  0  0  0  0  0  0  0  0  0  0  0
    0.8419   -0.6276    0.0000 C   0  0  0  0  0  0  0  0  0  0  0  0
    1.5563   -1.0401    0.0000 C   0  0  0  0  0  0  0  0  0  0  0  0
    1.5563   -1.8651    0.0000 C   0  0  0  0  0  0  0  0  0  0  0  0
    0.8419   -2.2776    0.0000 C   0  0  0  0  0  0  0  0  0  0  0  0
    0.1274   -1.8651    0.0000 C   0  0  0  0  0  0  0  0  0  0  0  0
    0.1274   -1.0401    0.0000 C   0  0  0  0  0  0  0  0  0  0  0  0
  1  2  1  0
  2  3  2  0
  2  4  1  0
  4  5  1  0
  5  6  2  0
  6  7  1  0
  7  8  2  0
  8  9  1  0
  9 10  2  0
 10  5  1  0
M  END

> <chembl_id>
CHEMBL347645

> <chembl_pref_name>
None

$$$$

     RDKit          2D

  9  9  0  0  0  0  0  0  0  0999 V2000
    1.2990   -0.7500    0.0000 C   0  0  0  0  0  0  0  0  0  0  0  0
    1.2990    0.7500    0.0000 C   0  0  0  0  0  0  0  0  0  0  0  0
    0.0000    1.5000    0.0000 C   0  0  0  0  0  0  0  0  0  0  0  0
   -1.2990    0.7500    0.0000 C   0  0  0  0  0  0  0  0  0  0  0  0
   -1.2990   -0.7500    0.0000 C   0  0  0  0  0  0  0  0  0  0  0  0
    0.0000   -1.5000    0.0000 N   0  0  0  0  0  0  0  0  0  0  0  0
    2.5973   -1.5031    0.0000 C   0  0  0  0  0  0  0  0  0  0  0  0
    3.6375   -0.9049    0.0000 N   0  0  0  0  0  0  0  0  0  0  0  0
    2.5956   -2.7031    0.0000 S   0  0  0  0  0  0  0  0  0  0  0  0
  1  2  2  0
  2  3  1  0
  3  4  2  0
  4  5  1  0
  5  6  2  0
  6  1  1  0
  1  7  1  0
  7  8  1  0
  7  9  2  0
M  END

> <chembl_id>
CHEMBL3741839

> <chembl_pref_name>
None

$$$$

     RDKit          2D

  9  9  0  0  0  0  0  0  0  0999 V2000
   -1.0639   -0.6322    0.0000 S   0  0  0  0  0  0  0  0  0  0  0  0
    0.3650   -1.4572    0.0000 N   0  0  0  0  0  0  0  0  0  0  0  0
   -1.0639   -1.4572    0.0000 C   0  0  0  0  0  0  0  0  0  0  0  0
   -0.3494   -1.8697    0.0000 C   0  0  0  0  0  0  0  0  0  0  0  0
   -1.7784   -1.8697    0.0000 C   0  0  0  0  0  0  0  0  0  0  0  0
   -1.7784   -2.6947    0.0000 C   0  0  0  0  0  0  0  0  0  0  0  0
   -0.3494   -2.6947    0.0000 C   0  0  0  0  0  0  0  0  0  0  0  0
   -1.0639   -3.1072    0.0000 C   0  0  0  0  0  0  0  0  0  0  0  0
   -2.4929   -3.1072    0.0000 C   0  0  0  0  0  0  0  0  0  0  0  0
  1  3  1  0
  2  4  1  0
  3  4  2  0
  3  5  1  0
  4  7  1  0
  5  6  2  0
  6  8  1  0
  6  9  1  0
  7  8  2  0
M  END

> <chembl_id>
CHEMBL1971557

> <chembl_pref_name>
None

$$$$

     RDKit          2D

  8  8  0  0  0  0  0  0  0  0999 V2000
   -1.6874    0.1031    0.0000 S   0  0  0  0  0  0  0  0  0  0  0  0
   -0.2584   -0.7219    0.0000 S   0  0  0  0  0  0  0  0  0  0  0  0
   -1.6874   -0.7219    0.0000 C   0  0  0  0  0  0  0  0  0  0  0  0
   -0.9729   -1.1344    0.0000 C   0  0  0  0  0  0  0  0  0  0  0  0
   -0.9729   -1.9594    0.0000 C   0  0  0  0  0  0  0  0  0  0  0  0
   -2.4018   -1.1344    0.0000 C   0  0  0  0  0  0  0  0  0  0  0  0
   -1.6874   -2.3719    0.0000 C   0  0  0  0  0  0  0  0  0  0  0  0
   -2.4018   -1.9594    0.0000 C   0  0  0  0  0  0  0  0  0  0  0  0
  1  3  1  0
  2  4  1  0
  3  4  1  0
  3  6  2  0
  4  5  2  0
  5  7  1  0
  6  8  1  0
  7  8  2  0
M  END

> <chembl_id>
CHEMBL1998992

> <chembl_pref_name>
None

$$$$

     RDKit          2D

 10 10  0  0  0  0  0  0  0  0999 V2000
    7.8875   -1.6667    0.0000 N   0  0  0  0  0  0  0  0  0  0  0  0
    7.1792   -1.2625    0.0000 C   0  0  0  0  0  0  0  0  0  0  0  0
    8.6000   -1.2625    0.0000 C   0  0  0  0  0  0  0  0  0  0  0  0
    7.1792   -0.4375    0.0000 C   0  0  0  0  0  0  0  0  0  0  0  0
    6.4625   -1.6750    0.0000 O   0  0  0  0  0  0  0  0  0  0  0  0
    8.6000   -0.4375    0.0000 C   0  0  0  0  0  0  0  0  0  0  0  0
    7.8875   -0.0167    0.0000 C   0  0  0  0  0  0  0  0  0  0  0  0
    7.8875   -2.4917    0.0000 C   0  0  0  0  0  0  0  0  0  0  0  0
    7.1750   -2.9042    0.0000 C   0  0  0  0  0  0  0  0  0  0  0  0
    8.6042   -2.9042    0.0000 C   0  0  0  0  0  0  0  0  0  0  0  0
  2  1  1  0
  3  1  1  0
  4  2  1  0
  5  2  2  0
  6  3  2  0
  7  6  1  0
  8  1  1  0
  9  8  1  0
 10  8  1  0
  7  4  2  0
M  END

> <chembl_id>
CHEMBL12274

> <chembl_pref_name>
None

$$$$

     RDKit          2D

 11 11  0  0  0  0  0  0  0  0999 V2000
   -0.4573    1.6876    0.0000 C   0  0  0  0  0  0  0  0  0  0  0  0
   -1.1718    2.1001    0.0000 O   0  0  0  0  0  0  0  0  0  0  0  0
    0.2572    2.1001    0.0000 O   0  0  0  0  0  0  0  0  0  0  0  0
   -0.4573    0.8626    0.0000 C   0  0  0  0  0  0  0  0  0  0  0  0
    0.2572    0.4501    0.0000 C   0  0  0  0  0  0  0  0  0  0  0  0
    0.2572   -0.3749    0.0000 C   0  0  0  0  0  0  0  0  0  0  0  0
    0.9716   -0.7874    0.0000 C   0  0  0  0  0  0  0  0  0  0  0  0
    0.9716   -1.6124    0.0000 C   0  0  0  0  0  0  0  0  0  0  0  0
    0.2572   -2.0249    0.0000 C   0  0  0  0  0  0  0  0  0  0  0  0
   -0.4573   -1.6124    0.0000 C   0  0  0  0  0  0  0  0  0  0  0  0
   -0.4573   -0.7874    0.0000 C   0  0  0  0  0  0  0  0  0  0  0  0
  1  2  2  0
  1  3  1  0
  1  4  1  0
  4  5  2  0
  5  6  1  0
  6  7  2  0
  6 11  1  0
  7  8  1  0
  8  9  2  0
  9 10  1  0
 10 11  2  0
M  END

> <chembl_id>
CHEMBL27246

> <chembl_pref_name>
CINNAMIC ACID

$$$$

     RDKit          2D

 11 12  0  0  0  0  0  0  0  0999 V2000
   -5.1942   -8.9161    0.0000 C   0  0  0  0  0  0  0  0  0  0  0  0
   -5.1953   -9.7449    0.0000 C   0  0  0  0  0  0  0  0  0  0  0  0
   -4.4792  -10.1585    0.0000 N   0  0  0  0  0  0  0  0  0  0  0  0
   -3.7615   -9.7445    0.0000 C   0  0  0  0  0  0  0  0  0  0  0  0
   -4.4810   -8.5025    0.0000 C   0  0  0  0  0  0  0  0  0  0  0  0
   -3.7630   -8.9089    0.0000 C   0  0  0  0  0  0  0  0  0  0  0  0
   -3.0559   -8.4926    0.0000 C   0  0  0  0  0  0  0  0  0  0  0  0
   -3.0607   -7.6683    0.0000 C   0  0  0  0  0  0  0  0  0  0  0  0
   -3.7787   -7.2618    0.0000 C   0  0  0  0  0  0  0  0  0  0  0  0
   -4.4920   -7.6799    0.0000 C   0  0  0  0  0  0  0  0  0  0  0  0
   -2.3372   -8.9007    0.0000 N   0  0  0  0  0  0  0  0  0  0  0  0
  1  2  2  0
  2  3  1  0
  3  4  2  0
  4  6  1  0
  5 10  1  0
  6  7  1  0
  7  8  1  0
  8  9  1  0
  9 10  1  0
  5  1  1  0
  7 11  1  0
  5  6  2  0
M  END

> <chembl_id>
CHEMBL119939

> <chembl_pref_name>
None

$$$$

     RDKit          2D

  7  7  0  0  0  0  0  0  0  0999 V2000
    2.7883    2.7161    0.0000 O   0  0  0  0  0  0  0  0  0  0  0  0
    3.4557    1.4062    0.0000 N   0  0  0  0  0  0  0  0  0  0  0  0
    3.2008    0.6216    0.0000 N   0  0  0  0  0  0  0  0  0  0  0  0
    2.1208    1.4062    0.0000 N   0  0  0  0  0  0  0  0  0  0  0  0
    1.8908   -0.0458    0.0000 N   0  0  0  0  0  0  0  0  0  0  0  0
    2.7883    1.8911    0.0000 C   0  0  0  0  0  0  0  0  0  0  0  0
    2.3758    0.6216    0.0000 C   0  0  0  0  0  0  0  0  0  0  0  0
  1  6  2  0
  2  3  1  0
  2  6  1  0
  3  7  1  0
  4  6  1  0
  4  7  2  0
  5  7  1  0
M  END

> <chembl_id>
CHEMBL1986057

> <chembl_pref_name>
None

$$$$

     RDKit          2D

 11 11  0  0  0  0  0  0  0  0999 V2000
    2.0448   -3.1137    0.0000 O   0  0  0  0  0  0  0  0  0  0  0  0
    2.0448   -2.2887    0.0000 C   0  0  0  0  0  0  0  0  0  0  0  0
    2.0448   -0.6387    0.0000 C   0  0  0  0  0  0  0  0  0  0  0  0
    1.3304   -1.8762    0.0000 C   0  0  0  0  0  0  0  0  0  0  0  0
    2.7593   -1.8762    0.0000 C   0  0  0  0  0  0  0  0  0  0  0  0
    1.3304   -1.0512    0.0000 C   0  0  0  0  0  0  0  0  0  0  0  0
    2.7593   -1.0512    0.0000 C   0  0  0  0  0  0  0  0  0  0  0  0
    2.0448    0.1863    0.0000 C   0  0  0  0  0  0  0  0  0  0  0  0
    1.3304    0.5988    0.0000 C   0  0  0  0  0  0  0  0  0  0  0  0
    2.7593   -3.5262    0.0000 C   0  0  0  0  0  0  0  0  0  0  0  0
    0.6159    0.1863    0.0000 C   0  0  0  0  0  0  0  0  0  0  0  0
  1  2  1  0
  1 10  1  0
  2  4  2  0
  2  5  1  0
  3  6  2  0
  3  7  1  0
  3  8  1  0
  4  6  1  0
  5  7  2  0
  8  9  2  0
  9 11  1  0
M  END

> <chembl_id>
CHEMBL1468832

> <chembl_pref_name>
None

$$$$

     RDKit          2D

 10 10  0  0  0  0  0  0  0  0999 V2000
   11.4887  -11.8357    0.0000 C   0  0  0  0  0  0  0  0  0  0  0  0
   11.4876  -12.6627    0.0000 C   0  0  0  0  0  0  0  0  0  0  0  0
   12.2020  -13.0753    0.0000 C   0  0  0  0  0  0  0  0  0  0  0  0
   12.9181  -12.6622    0.0000 C   0  0  0  0  0  0  0  0  0  0  0  0
   12.9152  -11.8321    0.0000 C   0  0  0  0  0  0  0  0  0  0  0  0
   12.2002  -11.4232    0.0000 C   0  0  0  0  0  0  0  0  0  0  0  0
   13.6278  -11.4172    0.0000 O   0  0  0  0  0  0  0  0  0  0  0  0
   10.7745  -11.4236    0.0000 O   0  0  0  0  0  0  0  0  0  0  0  0
   12.2018  -13.8999    0.0000 C   0  0  0  0  0  0  0  0  0  0  0  0
   13.6328  -13.0734    0.0000 O   0  0  0  0  0  0  0  0  0  0  0  0
  1  2  2  0
  2  3  1  0
  3  4  2  0
  4  5  1  0
  5  6  2  0
  6  1  1  0
  5  7  1  0
  1  8  1  0
  3  9  1  0
  4 10  1  0
M  END

> <chembl_id>
CHEMBL4102748

> <chembl_pref_name>
None

$$$$

     RDKit          2D

  9 10  0  0  0  0  0  0  0  0999 V2000
   -0.2018  -11.2536    0.0000 N   0  0  0  0  0  0  0  0  0  0  0  0
   -0.8716  -10.7664    0.0000 N   0  0  0  0  0  0  0  0  0  0  0  0
   -1.5371  -11.2536    0.0000 C   0  0  0  0  0  0  0  0  0  0  0  0
   -0.4587  -12.0383    0.0000 C   0  0  0  0  0  0  0  0  0  0  0  0
   -1.2843  -12.0338    0.0000 C   0  0  0  0  0  0  0  0  0  0  0  0
   -1.6987  -12.7425    0.0000 C   0  0  0  0  0  0  0  0  0  0  0  0
   -1.2921  -13.4603    0.0000 C   0  0  0  0  0  0  0  0  0  0  0  0
   -0.4666  -13.4649    0.0000 C   0  0  0  0  0  0  0  0  0  0  0  0
   -0.0475  -12.7515    0.0000 C   0  0  0  0  0  0  0  0  0  0  0  0
  4  1  1  0
  1  2  1  0
  2  3  2  0
  3  5  1  0
  4  5  2  0
  4  9  1  0
  5  6  1  0
  6  7  1  0
  7  8  1  0
  8  9  1  0
M  END

> <chembl_id>
CHEMBL1817866

> <chembl_pref_name>
None

$$$$

     RDKit          2D

 10 10  0  0  0  0  0  0  0  0999 V2000
    1.3292    2.1750    0.0000 C   0  0  0  0  0  0  0  0  0  0  0  0
    0.6167    2.5875    0.0000 O   0  0  0  0  0  0  0  0  0  0  0  0
    1.3375    1.3500    0.0000 C   0  0  0  0  0  0  0  0  0  0  0  0
    2.0417    2.5958    0.0000 C   0  0  0  0  0  0  0  0  0  0  0  0
    0.6250    0.9375    0.0000 C   0  0  0  0  0  0  0  0  0  0  0  0
    2.0542    0.9375    0.0000 C   0  0  0  0  0  0  0  0  0  0  0  0
    2.7625    2.1833    0.0000 C   0  0  0  0  0  0  0  0  0  0  0  0
    0.6250    0.1083    0.0000 C   0  0  0  0  0  0  0  0  0  0  0  0
    2.0542    0.1083    0.0000 C   0  0  0  0  0  0  0  0  0  0  0  0
    1.3375   -0.3042    0.0000 C   0  0  0  0  0  0  0  0  0  0  0  0
  2  1  2  0
  3  1  1  0
  4  1  1  0
  5  3  1  0
  6  3  2  0
  7  4  1  0
  8  5  2  0
  9  6  1  0
 10  9  2  0
  8 10  1  0
M  END

> <chembl_id>
CHEMBL193446

> <chembl_pref_name>
PROPIOPHENONE

$$$$

     RDKit          2D

 10 10  0  0  0  0  0  0  0  0999 V2000
    3.8792   -1.0375    0.0000 C   0  0  0  0  0  0  0  0  0  0  0  0
    3.1667   -1.4542    0.0000 C   0  0  0  0  0  0  0  0  0  0  0  0
    3.8792   -0.2125    0.0000 O   0  0  0  0  0  0  0  0  0  0  0  0
    3.1750   -2.2792    0.0000 C   0  0  0  0  0  0  0  0  0  0  0  0
    2.4542   -1.0417    0.0000 C   0  0  0  0  0  0  0  0  0  0  0  0
    4.6000   -1.4417    0.0000 N   0  0  0  0  0  0  0  0  0  0  0  0
    1.7542   -2.2875    0.0000 C   0  0  0  0  0  0  0  0  0  0  0  0
    1.0417   -2.7042    0.0000 N   0  0  0  0  0  0  0  0  0  0  0  0
    1.7417   -1.4625    0.0000 C   0  0  0  0  0  0  0  0  0  0  0  0
    2.4667   -2.6917    0.0000 C   0  0  0  0  0  0  0  0  0  0  0  0
  2  1  1  0
  3  1  2  0
  4  2  2  0
  5  2  1  0
  6  1  1  0
  7  9  1  0
  8  7  1  0
  9  5  2  0
 10  4  1  0
 10  7  2  0
M  END

> <chembl_id>
CHEMBL332444

> <chembl_pref_name>
None

$$$$

     RDKit          2D

 10 10  0  0  0  0  0  0  0  0999 V2000
    7.1375   -5.2167    0.0000 C   0  0  0  0  0  0  0  0  0  0  0  0
    7.1375   -6.0417    0.0000 C   0  0  0  0  0  0  0  0  0  0  0  0
    6.4167   -4.8042    0.0000 C   0  0  0  0  0  0  0  0  0  0  0  0
    5.7042   -5.2167    0.0000 C   0  0  0  0  0  0  0  0  0  0  0  0
    6.4167   -6.4542    0.0000 O   0  0  0  0  0  0  0  0  0  0  0  0
    5.7042   -6.0417    0.0000 C   0  0  0  0  0  0  0  0  0  0  0  0
    6.4167   -3.9792    0.0000 O   0  0  0  0  0  0  0  0  0  0  0  0
    7.8500   -4.8000    0.0000 O   0  0  0  0  0  0  0  0  0  0  0  0
    7.8542   -6.4542    0.0000 C   0  0  0  0  0  0  0  0  0  0  0  0
    7.8542   -7.2792    0.0000 C   0  0  0  0  0  0  0  0  0  0  0  0
  2  1  2  0
  3  1  1  0
  4  3  1  0
  5  2  1  0
  6  4  2  0
  7  3  2  0
  8  1  1  0
  9  2  1  0
 10  9  1  0
  6  5  1  0
M  END

> <chembl_id>
CHEMBL121557

> <chembl_pref_name>
E637

$$$$

     RDKit          2D

 10 10  0  0  0  0  0  0  0  0999 V2000
    6.4375   -1.5917    0.0000 C   0  0  0  0  0  0  0  0  0  0  0  0
    6.0292   -2.3042    0.0000 O   0  0  0  0  0  0  0  0  0  0  0  0
    7.2625   -1.5917    0.0000 O   0  0  0  0  0  0  0  0  0  0  0  0
    6.0250   -0.8792    0.0000 N   0  0  0  0  0  0  0  0  0  0  0  0
    5.2042   -2.3042    0.0000 C   0  0  0  0  0  0  0  0  0  0  0  0
    5.2042   -3.1375    0.0000 C   0  0  0  0  0  0  0  0  0  0  0  0
    4.4875   -1.8917    0.0000 C   0  0  0  0  0  0  0  0  0  0  0  0
    4.4875   -3.5500    0.0000 C   0  0  0  0  0  0  0  0  0  0  0  0
    3.7750   -2.3125    0.0000 C   0  0  0  0  0  0  0  0  0  0  0  0
    3.7750   -3.1375    0.0000 C   0  0  0  0  0  0  0  0  0  0  0  0
  2  1  1  0
  3  1  2  0
  4  1  1  0
  5  2  1  0
  6  5  1  0
  7  5  2  0
  8  6  2  0
  9  7  1  0
 10  9  2  0
  8 10  1  0
M  END

> <chembl_id>
CHEMBL173183

> <chembl_pref_name>
CARBAMIC ACID PHENYL ESTER

$$$$

     RDKit          2D

 10 11  0  0  0  0  0  0  0  0999 V2000
    5.3337   -1.1717    0.0000 C   0  0  0  0  0  0  0  0  0  0  0  0
    5.3325   -1.9967    0.0000 C   0  0  0  0  0  0  0  0  0  0  0  0
    6.0453   -2.4085    0.0000 C   0  0  0  0  0  0  0  0  0  0  0  0
    6.0435   -0.7601    0.0000 C   0  0  0  0  0  0  0  0  0  0  0  0
    6.7570   -1.1680    0.0000 C   0  0  0  0  0  0  0  0  0  0  0  0
    6.7618   -1.9968    0.0000 C   0  0  0  0  0  0  0  0  0  0  0  0
    7.5515   -2.2483    0.0000 N   0  0  0  0  0  0  0  0  0  0  0  0
    8.0347   -1.5749    0.0000 C   0  0  0  0  0  0  0  0  0  0  0  0
    7.5437   -0.9075    0.0000 N   0  0  0  0  0  0  0  0  0  0  0  0
    8.8545   -1.5748    0.0000 O   0  0  0  0  0  0  0  0  0  0  0  0
  5  6  1  0
  2  3  1  0
  3  6  2  0
  1  2  2  0
  5  4  2  0
  6  7  1  0
  7  8  1  0
  8  9  1  0
  9  5  1  0
  4  1  1  0
  8 10  1  0
M  END

> <chembl_id>
CHEMBL571991

> <chembl_pref_name>
None

$$$$

     RDKit          2D

 10 12  0  0  0  0  0  0  0  0999 V2000
    1.4292   -2.0250    0.0000 C   0  0  0  0  0  0  0  0  0  0  0  0
    1.9250   -1.3500    0.0000 C   0  0  0  0  0  0  0  0  0  0  0  0
    2.2750   -2.2792    0.0000 C   0  0  0  0  0  0  0  0  0  0  0  0
    0.6417   -1.7667    0.0000 C   0  0  0  0  0  0  0  0  0  0  0  0
    0.6417   -0.9375    0.0000 C   0  0  0  0  0  0  0  0  0  0  0  0
    1.4292   -0.6792    0.0000 C   0  0  0  0  0  0  0  0  0  0  0  0
   -0.0708   -2.1792    0.0000 C   0  0  0  0  0  0  0  0  0  0  0  0
   -0.0708   -0.5250    0.0000 C   0  0  0  0  0  0  0  0  0  0  0  0
   -0.7833   -1.7667    0.0000 C   0  0  0  0  0  0  0  0  0  0  0  0
   -0.7833   -0.9375    0.0000 C   0  0  0  0  0  0  0  0  0  0  0  0
  2  1  1  0
  3  1  1  0
  4  1  1  0
  5  4  1  0
  6  2  1  0
  7  4  2  0
  8  5  2  0
  9  7  1  0
 10  9  2  0
  3  2  1  0
  5  6  1  0
 10  8  1  0
M  END

> <chembl_id>
CHEMBL172143

> <chembl_pref_name>
None

$$$$

     RDKit          2D

  9  9  0  0  0  0  0  0  0  0999 V2000
    1.6250    2.0208    0.0000 C   0  0  0  0  0  0  0  0  0  0  0  0
    2.4542    2.0208    0.0000 C   0  0  0  0  0  0  0  0  0  0  0  0
    1.2125    1.3083    0.0000 C   0  0  0  0  0  0  0  0  0  0  0  0
    2.8750    2.7458    0.0000 O   0  0  0  0  0  0  0  0  0  0  0  0
    2.4542    0.5958    0.0000 C   0  0  0  0  0  0  0  0  0  0  0  0
    2.8667    1.3083    0.0000 C   0  0  0  0  0  0  0  0  0  0  0  0
    1.6250    0.5958    0.0000 C   0  0  0  0  0  0  0  0  0  0  0  0
    0.3875    1.3083    0.0000 C   0  0  0  0  0  0  0  0  0  0  0  0
    2.4625    3.4625    0.0000 C   0  0  0  0  0  0  0  0  0  0  0  0
  2  1  2  0
  3  1  1  0
  4  2  1  0
  5  7  1  0
  6  2  1  0
  7  3  2  0
  8  3  1  0
  9  4  1  0
  6  5  2  0
M  END

> <chembl_id>
CHEMBL349791

> <chembl_pref_name>
None

$$$$

     RDKit          2D

  8  8  0  0  0  0  0  0  0  0999 V2000
    0.4291    1.0270    0.0000 C   0  0  0  0  0  0  0  0  0  0  0  0
    1.1436    0.6145    0.0000 N   0  0  0  0  0  0  0  0  0  0  0  0
    1.1436   -0.2105    0.0000 C   0  0  0  0  0  0  0  0  0  0  0  0
    1.8581   -0.6230    0.0000 C   0  0  0  0  0  0  0  0  0  0  0  0
    1.8581   -1.4480    0.0000 C   0  0  0  0  0  0  0  0  0  0  0  0
    1.1436   -1.8605    0.0000 C   0  0  0  0  0  0  0  0  0  0  0  0
    0.4291   -1.4480    0.0000 C   0  0  0  0  0  0  0  0  0  0  0  0
    0.4291   -0.6230    0.0000 C   0  0  0  0  0  0  0  0  0  0  0  0
  1  2  1  0
  3  2  1  0
  4  3  2  0
  8  3  1  0
  5  4  1  0
  6  5  2  0
  6  7  1  0
  7  8  2  0
M  END

> <chembl_id>
CHEMBL170781

> <chembl_pref_name>
None

$$$$

     RDKit          2D

  9  9  0  0  0  0  0  0  0  0999 V2000
   -4.0017  -24.2794    0.0000 N   0  0  0  0  0  0  0  0  0  0  0  0
   -4.0017  -25.1044    0.0000 C   0  0  0  0  0  0  0  0  0  0  0  0
   -3.2912  -25.5146    0.0000 N   0  0  0  0  0  0  0  0  0  0  0  0
   -2.5762  -25.1044    0.0000 C   0  0  0  0  0  0  0  0  0  0  0  0
   -2.5762  -24.2794    0.0000 C   0  0  0  0  0  0  0  0  0  0  0  0
   -3.2912  -23.8647    0.0000 C   0  0  0  0  0  0  0  0  0  0  0  0
   -4.7123  -25.5146    0.0000 O   0  0  0  0  0  0  0  0  0  0  0  0
   -3.2925  -23.0443    0.0000 N   0  0  0  0  0  0  0  0  0  0  0  0
   -2.5825  -22.6331    0.0000 O   0  0  0  0  0  0  0  0  0  0  0  0
  3  4  1  0
  4  5  2  0
  5  6  1  0
  2  7  2  0
  1  2  1  0
  1  6  2  0
  6  8  1  0
  2  3  1  0
  8  9  1  0
M  END

> <chembl_id>
CHEMBL499820

> <chembl_pref_name>
N4-hydroxycytosine

$$$$

     RDKit          2D

  7  7  0  0  0  0  0  0  0  0999 V2000
    1.2667   -0.4167    0.0000 N   0  0  0  0  0  0  0  0  0  0  0  0
    0.9667    0.5083    0.0000 N   0  0  0  0  0  0  0  0  0  0  0  0
    1.4542    0.1583    0.0000 C   0  0  0  0  0  0  0  0  0  0  0  0
    0.6667   -0.4167    0.0000 C   0  0  0  0  0  0  0  0  0  0  0  0
    0.4792    0.1583    0.0000 C   0  0  0  0  0  0  0  0  0  0  0  0
    0.9625    1.1083    0.0000 C   0  0  0  0  0  0  0  0  0  0  0  0
    1.4750    1.4125    0.0000 C   0  0  0  0  0  0  0  0  0  0  0  0
  2  3  1  0
  3  1  2  0
  4  1  1  0
  5  4  2  0
  6  2  1  0
  7  6  1  0
  5  2  1  0
M  END

> <chembl_id>
CHEMBL13911

> <chembl_pref_name>
None

$$$$

     RDKit          2D

 11 11  0  0  0  0  0  0  0  0999 V2000
   13.0394  -14.8282    0.0000 C   0  0  0  0  0  0  0  0  0  0  0  0
   13.0383  -15.6555    0.0000 C   0  0  0  0  0  0  0  0  0  0  0  0
   13.7530  -16.0684    0.0000 N   0  0  0  0  0  0  0  0  0  0  0  0
   14.4694  -15.6550    0.0000 C   0  0  0  0  0  0  0  0  0  0  0  0
   14.4665  -14.8246    0.0000 C   0  0  0  0  0  0  0  0  0  0  0  0
   13.7512  -14.4154    0.0000 C   0  0  0  0  0  0  0  0  0  0  0  0
   15.1794  -14.4094    0.0000 C   0  0  0  0  0  0  0  0  0  0  0  0
   15.8906  -13.9907    0.0000 C   0  0  0  0  0  0  0  0  0  0  0  0
   16.6016  -13.5723    0.0000 C   0  0  0  0  0  0  0  0  0  0  0  0
   17.3194  -13.9788    0.0000 N   0  0  0  0  0  0  0  0  0  0  0  0
   13.7488  -13.5905    0.0000 C   0  0  0  0  0  0  0  0  0  0  0  0
  1  2  2  0
  2  3  1  0
  3  4  2  0
  4  5  1  0
  5  6  2  0
  6  1  1  0
  5  7  1  0
  7  8  3  0
  8  9  1  0
  9 10  1  0
  6 11  1  0
M  END


> <chembl_id>
CHEMBL4301927

> <chembl_pref_name>
None

$$$$

     RDKit          2D

 11 11  0  0  0  0  0  0  0  0999 V2000
   12.4022   -9.1955    0.0000 C   0  0  0  0  0  0  0  0  0  0  0  0
   12.4011  -10.0228    0.0000 C   0  0  0  0  0  0  0  0  0  0  0  0
   13.1158  -10.4357    0.0000 N   0  0  0  0  0  0  0  0  0  0  0  0
   13.8323  -10.0223    0.0000 C   0  0  0  0  0  0  0  0  0  0  0  0
   13.8295   -9.1919    0.0000 C   0  0  0  0  0  0  0  0  0  0  0  0
   13.1141   -8.7827    0.0000 C   0  0  0  0  0  0  0  0  0  0  0  0
   14.5423   -8.7766    0.0000 C   0  0  0  0  0  0  0  0  0  0  0  0
   15.2536   -8.3580    0.0000 C   0  0  0  0  0  0  0  0  0  0  0  0
   15.9645   -7.9395    0.0000 C   0  0  0  0  0  0  0  0  0  0  0  0
   16.6825   -8.3461    0.0000 N   0  0  0  0  0  0  0  0  0  0  0  0
   11.6877   -8.7831    0.0000 C   0  0  0  0  0  0  0  0  0  0  0  0
  1  2  2  0
  2  3  1  0
  3  4  2  0
  4  5  1  0
  5  6  2  0
  6  1  1  0
  5  7  1  0
  7  8  3  0
  8  9  1  0
  9 10  1  0
  1 11  1  0
M  END


> <chembl_id>
CHEMBL4301466

> <chembl_pref_name>
None

$$$$

     RDKit          2D

 10 10  0  0  0  0  0  0  0  0999 V2000
    3.5504    1.1550    0.0000 O   0  0  0  0  0  0  0  0  0  0  0  0
    2.1214    0.3300    0.0000 O   0  0  0  0  0  0  0  0  0  0  0  0
    4.9793    1.1550    0.0000 N   0  0  0  0  0  0  0  0  0  0  0  0
    3.5504    0.3300    0.0000 C   0  0  0  0  0  0  0  0  0  0  0  0
    4.2648   -0.0825    0.0000 C   0  0  0  0  0  0  0  0  0  0  0  0
    2.8359   -0.0825    0.0000 C   0  0  0  0  0  0  0  0  0  0  0  0
    4.2648   -0.9075    0.0000 C   0  0  0  0  0  0  0  0  0  0  0  0
    2.8359   -0.9075    0.0000 C   0  0  0  0  0  0  0  0  0  0  0  0
    3.5504   -1.3200    0.0000 C   0  0  0  0  0  0  0  0  0  0  0  0
    4.9793    0.3300    0.0000 C   0  0  0  0  0  0  0  0  0  0  0  0
  1  4  1  0
  2  6  1  0
  3 10  1  0
  4  5  2  0
  4  6  1  0
  5  7  1  0
  5 10  1  0
  6  8  2  0
  7  9  2  0
  8  9  1  0
M  END

> <chembl_id>
CHEMBL2009539

> <chembl_pref_name>
None

$$$$

     RDKit          2D

  9  9  0  0  0  0  0  0  0  0999 V2000
    9.5971   -9.3445    0.0000 C   0  0  0  0  0  0  0  0  0  0  0  0
    9.5960  -10.1713    0.0000 C   0  0  0  0  0  0  0  0  0  0  0  0
   10.3103  -10.5840    0.0000 C   0  0  0  0  0  0  0  0  0  0  0  0
   11.0263  -10.1709    0.0000 C   0  0  0  0  0  0  0  0  0  0  0  0
   11.0235   -9.3408    0.0000 C   0  0  0  0  0  0  0  0  0  0  0  0
   10.3085   -8.9319    0.0000 C   0  0  0  0  0  0  0  0  0  0  0  0
   10.3060   -8.1074    0.0000 C   0  0  0  0  0  0  0  0  0  0  0  0
   11.0189   -7.6931    0.0000 O   0  0  0  0  0  0  0  0  0  0  0  0
   10.3101  -11.4085    0.0000 Cl  0  0  0  0  0  0  0  0  0  0  0  0
  4  5  1  0
  2  3  1  0
  5  6  2  0
  6  1  1  0
  1  2  2  0
  6  7  1  0
  3  4  2  0
  7  8  2  0
  3  9  1  0
M  END

> <chembl_id>
CHEMBL1474

> <chembl_pref_name>
None

$$$$

     RDKit          2D

  9  9  0  0  0  0  0  0  0  0999 V2000
    4.2350   -1.1023    0.0000 S   0  0  0  0  0  0  0  0  0  0  0  0
    3.0239    0.7442    0.0000 N   0  0  0  0  0  0  0  0  0  0  0  0
    3.9801   -0.3177    0.0000 C   0  0  0  0  0  0  0  0  0  0  0  0
    4.6475    0.1672    0.0000 C   0  0  0  0  0  0  0  0  0  0  0  0
    5.3149   -0.3177    0.0000 C   0  0  0  0  0  0  0  0  0  0  0  0
    5.0600   -1.1023    0.0000 C   0  0  0  0  0  0  0  0  0  0  0  0
    3.1954   -0.0628    0.0000 C   0  0  0  0  0  0  0  0  0  0  0  0
    4.6475    0.9922    0.0000 C   0  0  0  0  0  0  0  0  0  0  0  0
    2.2393    0.9991    0.0000 C   0  0  0  0  0  0  0  0  0  0  0  0
  1  3  1  0
  1  6  1  0
  2  7  1  0
  2  9  1  0
  3  4  2  0
  3  7  1  0
  4  5  1  0
  4  8  1  0
  5  6  2  0
M  END

> <chembl_id>
CHEMBL1907184

> <chembl_pref_name>
None

$$$$

     RDKit          2D

 11 12  0  0  0  0  0  0  0  0999 V2000
   -1.5669    0.0079    0.0000 O   0  0  0  0  0  0  0  0  0  0  0  0
   -1.3369   -1.4442    0.0000 O   0  0  0  0  0  0  0  0  0  0  0  0
    1.8461    0.8329    0.0000 N   0  0  0  0  0  0  0  0  0  0  0  0
   -0.2973   -0.4046    0.0000 C   0  0  0  0  0  0  0  0  0  0  0  0
   -0.2973    0.4204    0.0000 C   0  0  0  0  0  0  0  0  0  0  0  0
   -1.0819   -0.6596    0.0000 C   0  0  0  0  0  0  0  0  0  0  0  0
   -1.0819    0.6753    0.0000 C   0  0  0  0  0  0  0  0  0  0  0  0
    0.4172    0.8329    0.0000 C   0  0  0  0  0  0  0  0  0  0  0  0
    0.4172   -0.8171    0.0000 C   0  0  0  0  0  0  0  0  0  0  0  0
    1.1316    0.4204    0.0000 C   0  0  0  0  0  0  0  0  0  0  0  0
    1.1316   -0.4046    0.0000 C   0  0  0  0  0  0  0  0  0  0  0  0
  1  6  1  0
  1  7  1  0
  2  6  2  0
  3 10  1  0
  4  5  1  0
  4  6  1  0
  4  9  2  0
  5  7  1  0
  5  8  2  0
  8 10  1  0
  9 11  1  0
 10 11  2  0
M  END

> <chembl_id>
CHEMBL1493900

> <chembl_pref_name>
None

$$$$

     RDKit          2D

  8  8  0  0  0  0  0  0  0  0999 V2000
    1.1385   -3.3418    0.0000 C   0  0  0  0  0  0  0  0  0  0  0  0
    1.6281   -2.2462    0.0000 C   0  0  0  0  0  0  0  0  0  0  0  0
    0.7500   -1.0323    0.0000 C   0  0  0  0  0  0  0  0  0  0  0  0
    1.2135    0.3943    0.0000 N   0  0  0  0  0  0  0  0  0  0  0  0
    0.0000    1.2760    0.0000 C   0  0  0  0  0  0  0  0  0  0  0  0
    0.0000    2.4760    0.0000 C   0  0  0  0  0  0  0  0  0  0  0  0
   -1.2135    0.3943    0.0000 C   0  0  0  0  0  0  0  0  0  0  0  0
   -0.7500   -1.0323    0.0000 N   0  0  0  0  0  0  0  0  0  0  0  0
  1  2  1  0
  2  3  1  0
  3  4  2  0
  4  5  1  0
  5  6  1  0
  5  7  2  0
  7  8  1  0
  8  3  1  0
M  END

> <chembl_id>
CHEMBL1367804

> <chembl_pref_name>
None

$$$$

     RDKit          2D

  5  5  0  0  0  0  0  0  0  0999 V2000
    3.4667  -15.8167    0.0000 O   0  0  0  0  0  0  0  0  0  0  0  0
    2.8000  -16.2917    0.0000 C   0  0  0  0  0  0  0  0  0  0  0  0
    4.1250  -16.3125    0.0000 C   0  0  0  0  0  0  0  0  0  0  0  0
    3.8667  -17.0917    0.0000 C   0  0  0  0  0  0  0  0  0  0  0  0
    3.0542  -17.0917    0.0000 C   0  0  0  0  0  0  0  0  0  0  0  0
  2  1  1  0
  3  1  1  0
  4  3  2  0
  5  2  2  0
  5  4  1  0
M  END

> <chembl_id>
CHEMBL278980

> <chembl_pref_name>
FURAN

$$$$

     RDKit          2D

 11 11  0  0  0  0  0  0  0  0999 V2000
    1.3917    3.4833    0.0000 C   0  0  0  0  0  0  0  0  0  0  0  0
    0.6792    3.0708    0.0000 C   0  0  0  0  0  0  0  0  0  0  0  0
    1.3875    4.3042    0.0000 C   0  0  0  0  0  0  0  0  0  0  0  0
    0.6792    2.2375    0.0000 C   0  0  0  0  0  0  0  0  0  0  0  0
   -0.0375    3.4833    0.0000 C   0  0  0  0  0  0  0  0  0  0  0  0
   -0.0375    1.8250    0.0000 C   0  0  0  0  0  0  0  0  0  0  0  0
   -0.7500    3.0625    0.0000 C   0  0  0  0  0  0  0  0  0  0  0  0
   -0.7500    2.2375    0.0000 C   0  0  0  0  0  0  0  0  0  0  0  0
    2.1042    2.2500    0.0000 N   0  0  0  0  0  0  0  0  0  0  0  0
    2.1042    3.0833    0.0000 C   0  0  0  0  0  0  0  0  0  0  0  0
   -1.4708    1.8250    0.0000 C   0  0  0  0  0  0  0  0  0  0  0  0
  2  1  1  0
  3  1  2  0
  4  2  1  0
  5  2  2  0
  6  4  2  0
  7  5  1  0
  8  7  2  0
  9 10  1  0
 10  1  1  0
 11  8  1  0
  6  8  1  0
M  END

> <chembl_id>
CHEMBL316424

> <chembl_pref_name>
None

$$$$

     RDKit          2D

  9  9  0  0  0  0  0  0  0  0999 V2000
    5.4167   -2.3417    0.0000 C   0  0  0  0  0  0  0  0  0  0  0  0
    4.5917   -2.3292    0.0000 C   0  0  0  0  0  0  0  0  0  0  0  0
    5.8125   -3.0667    0.0000 N   0  0  0  0  0  0  0  0  0  0  0  0
    5.8417   -1.6417    0.0000 N   0  0  0  0  0  0  0  0  0  0  0  0
    4.1917   -1.6042    0.0000 C   0  0  0  0  0  0  0  0  0  0  0  0
    4.1625   -3.0417    0.0000 C   0  0  0  0  0  0  0  0  0  0  0  0
    3.3667   -1.5917    0.0000 C   0  0  0  0  0  0  0  0  0  0  0  0
    3.3292   -3.0167    0.0000 C   0  0  0  0  0  0  0  0  0  0  0  0
    2.9375   -2.2917    0.0000 C   0  0  0  0  0  0  0  0  0  0  0  0
  2  1  1  0
  3  1  1  0
  4  1  1  0
  5  2  2  0
  6  2  1  0
  7  5  1  0
  8  6  2  0
  9  8  1  0
  9  7  2  0
M  END

> <chembl_id>
CHEMBL145825

> <chembl_pref_name>
None

$$$$

     RDKit          2D

 10 10  0  0  0  0  0  0  0  0999 V2000
    5.8125   -4.5042    0.0000 C   0  0  0  0  0  0  0  0  0  0  0  0
    5.1000   -3.2667    0.0000 C   0  0  0  0  0  0  0  0  0  0  0  0
    5.1000   -4.9167    0.0000 O   0  0  0  0  0  0  0  0  0  0  0  0
    5.1000   -2.4417    0.0000 C   0  0  0  0  0  0  0  0  0  0  0  0
    4.3792   -4.5042    0.0000 C   0  0  0  0  0  0  0  0  0  0  0  0
    5.8125   -3.6792    0.0000 C   0  0  0  0  0  0  0  0  0  0  0  0
    4.3792   -3.6792    0.0000 C   0  0  0  0  0  0  0  0  0  0  0  0
    5.1000   -1.6167    0.0000 C   0  0  0  0  0  0  0  0  0  0  0  0
    6.5292   -4.9292    0.0000 O   0  0  0  0  0  0  0  0  0  0  0  0
    3.6625   -4.9167    0.0000 C   0  0  0  0  0  0  0  0  0  0  0  0
  2  6  2  0
  3  1  1  0
  4  2  1  0
  5  3  1  0
  6  1  1  0
  7  2  1  0
  8  4  3  0
  9  1  2  0
 10  5  1  0
  5  7  2  0
M  END

> <chembl_id>
CHEMBL115980

> <chembl_pref_name>
None

$$$$

     RDKit          2D

 10 10  0  0  0  0  0  0  0  0999 V2000
    1.5554   -3.6031    0.0000 O   0  0  0  0  0  0  0  0  0  0  0  0
    0.0000   -1.5000    0.0000 N   0  0  0  0  0  0  0  0  0  0  0  0
    2.5951   -3.0039    0.0000 N   0  0  0  0  0  0  0  0  0  0  0  0
    1.2990   -0.7500    0.0000 C   0  0  0  0  0  0  0  0  0  0  0  0
    2.5973   -1.5031    0.0000 C   0  0  0  0  0  0  0  0  0  0  0  0
    1.2990    0.7500    0.0000 C   0  0  0  0  0  0  0  0  0  0  0  0
   -1.2990   -0.7500    0.0000 C   0  0  0  0  0  0  0  0  0  0  0  0
    0.0000    1.5000    0.0000 C   0  0  0  0  0  0  0  0  0  0  0  0
   -1.2990    0.7500    0.0000 C   0  0  0  0  0  0  0  0  0  0  0  0
    3.6375   -0.9049    0.0000 C   0  0  0  0  0  0  0  0  0  0  0  0
  1  3  1  0
  2  4  1  0
  2  7  2  0
  3  5  2  0
  4  5  1  0
  4  6  2  0
  5 10  1  0
  6  8  1  0
  7  9  1  0
  8  9  2  0
M  END

> <chembl_id>
CHEMBL3192005

> <chembl_pref_name>
None

$$$$

     RDKit          2D

  8  8  0  0  0  0  0  0  0  0999 V2000
    1.0125   -0.7917    0.0000 N   0  0  0  0  0  0  0  0  0  0  0  0
    1.5292   -1.0917    0.0000 C   0  0  0  0  0  0  0  0  0  0  0  0
    0.4917   -1.0917    0.0000 C   0  0  0  0  0  0  0  0  0  0  0  0
    1.0125   -1.9917    0.0000 C   0  0  0  0  0  0  0  0  0  0  0  0
    0.4917   -1.6917    0.0000 C   0  0  0  0  0  0  0  0  0  0  0  0
    1.5292   -1.6917    0.0000 C   0  0  0  0  0  0  0  0  0  0  0  0
    2.0500   -0.7875    0.0000 C   0  0  0  0  0  0  0  0  0  0  0  0
   -0.0250   -0.7917    0.0000 C   0  0  0  0  0  0  0  0  0  0  0  0
  2  1  2  0
  3  1  1  0
  4  5  1  0
  5  3  2  0
  6  2  1  0
  7  2  1  0
  8  3  1  0
  6  4  2  0
M  END

> <chembl_id>
CHEMBL22976

> <chembl_pref_name>
None

$$$$

     RDKit          2D

  9  9  0  0  0  0  0  0  0  0999 V2000
   -1.7208   -1.2667    0.0000 C   0  0  0  0  0  0  0  0  0  0  0  0
   -1.1375   -1.4292    0.0000 C   0  0  0  0  0  0  0  0  0  0  0  0
   -2.1833   -1.6417    0.0000 S   0  0  0  0  0  0  0  0  0  0  0  0
   -1.9333   -0.7042    0.0000 C   0  0  0  0  0  0  0  0  0  0  0  0
   -2.6875   -1.3167    0.0000 C   0  0  0  0  0  0  0  0  0  0  0  0
   -2.5333   -0.7375    0.0000 C   0  0  0  0  0  0  0  0  0  0  0  0
   -0.9833   -2.0125    0.0000 C   0  0  0  0  0  0  0  0  0  0  0  0
   -0.7125   -1.0042    0.0000 C   0  0  0  0  0  0  0  0  0  0  0  0
   -0.1333   -1.1667    0.0000 N   0  0  0  0  0  0  0  0  0  0  0  0
  2  1  1  0
  3  1  1  0
  4  1  2  0
  5  3  1  0
  6  4  1  0
  7  2  2  0
  8  2  1  0
  9  8  1  0
  6  5  2  0
M  END

> <chembl_id>
CHEMBL110604

> <chembl_pref_name>
None

$$$$

     RDKit          2D

  9  9  0  0  0  0  0  0  0  0999 V2000
    0.5739   -0.3210    0.0000 C   0  0  0  0  0  0  0  0  0  0  0  0
   -0.1406   -0.7335    0.0000 C   0  0  0  0  0  0  0  0  0  0  0  0
   -0.8550   -0.3210    0.0000 C   0  0  0  0  0  0  0  0  0  0  0  0
   -0.8550    0.5040    0.0000 C   0  0  0  0  0  0  0  0  0  0  0  0
   -0.1406    0.9165    0.0000 C   0  0  0  0  0  0  0  0  0  0  0  0
    0.5739    0.5040    0.0000 C   0  0  0  0  0  0  0  0  0  0  0  0
    1.2884   -0.7335    0.0000 N   0  0  0  0  0  0  0  0  0  0  0  0
   -0.1406    1.7415    0.0000 C   0  0  0  0  0  0  0  0  0  0  0  0
   -0.1406   -1.5585    0.0000 C   0  0  0  0  0  0  0  0  0  0  0  0
  1  2  2  0
  1  6  1  0
  1  7  1  0
  2  3  1  0
  2  9  1  0
  3  4  2  0
  4  5  1  0
  5  6  2  0
  5  8  1  0
M  END

> <chembl_id>
CHEMBL249120

> <chembl_pref_name>
2,5-XYLIDINE

$$$$

     RDKit          2D

  8  8  0  0  0  0  0  0  0  0999 V2000
   -0.1250    1.1888    0.0000 C   0  0  0  0  0  0  0  0  0  0  0  0
    0.5895    1.6013    0.0000 O   0  0  0  0  0  0  0  0  0  0  0  0
   -0.1250    0.3638    0.0000 C   0  0  0  0  0  0  0  0  0  0  0  0
   -0.8395   -0.0488    0.0000 C   0  0  0  0  0  0  0  0  0  0  0  0
   -0.8395   -0.8738    0.0000 C   0  0  0  0  0  0  0  0  0  0  0  0
   -0.1250   -1.2863    0.0000 C   0  0  0  0  0  0  0  0  0  0  0  0
    0.5895   -0.8737    0.0000 C   0  0  0  0  0  0  0  0  0  0  0  0
    0.5895   -0.0487    0.0000 C   0  0  0  0  0  0  0  0  0  0  0  0
  3  1  1  0
  1  2  2  0
  3  8  2  0
  3  4  1  0
  4  5  2  0
  5  6  1  0
  6  7  2  0
  7  8  1  0
M  END

> <chembl_id>
CHEMBL15972

> <chembl_pref_name>
BENZALDEHYDE

$$$$

     RDKit          2D

  8  8  0  0  0  0  0  0  0  0999 V2000
    2.1036    2.0298    0.0000 O   0  0  0  0  0  0  0  0  0  0  0  0
    2.7710    0.7199    0.0000 N   0  0  0  0  0  0  0  0  0  0  0  0
    1.4361    0.7199    0.0000 N   0  0  0  0  0  0  0  0  0  0  0  0
    1.6911   -0.0648    0.0000 N   0  0  0  0  0  0  0  0  0  0  0  0
    2.5161   -0.0648    0.0000 C   0  0  0  0  0  0  0  0  0  0  0  0
    2.1036    1.2048    0.0000 C   0  0  0  0  0  0  0  0  0  0  0  0
    3.0010   -0.7322    0.0000 C   0  0  0  0  0  0  0  0  0  0  0  0
    3.8215   -0.6460    0.0000 C   0  0  0  0  0  0  0  0  0  0  0  0
  1  6  2  0
  2  5  1  0
  2  6  1  0
  3  4  1  0
  3  6  1  0
  4  5  2  0
  5  7  1  0
  7  8  1  0
M  END

> <chembl_id>
CHEMBL2007521

> <chembl_pref_name>
None

$$$$

     RDKit          2D

  8  8  0  0  0  0  0  0  0  0999 V2000
    2.8667    1.3083    0.0000 C   0  0  0  0  0  0  0  0  0  0  0  0
    1.2125    1.3083    0.0000 C   0  0  0  0  0  0  0  0  0  0  0  0
    3.6917    1.3083    0.0000 F   0  0  0  0  0  0  0  0  0  0  0  0
    2.4542    2.0208    0.0000 C   0  0  0  0  0  0  0  0  0  0  0  0
    2.4542    0.5958    0.0000 C   0  0  0  0  0  0  0  0  0  0  0  0
    1.6250    2.0208    0.0000 C   0  0  0  0  0  0  0  0  0  0  0  0
    1.6250    0.5958    0.0000 C   0  0  0  0  0  0  0  0  0  0  0  0
    0.3875    1.3083    0.0000 C   0  0  0  0  0  0  0  0  0  0  0  0
  2  7  2  0
  3  1  1  0
  4  1  1  0
  5  1  2  0
  6  4  2  0
  7  5  1  0
  8  2  1  0
  2  6  1  0
M  END

> <chembl_id>
CHEMBL346605

> <chembl_pref_name>
None

$$$$

     RDKit          2D

  8  8  0  0  0  0  0  0  0  0999 V2000
    5.5250   -6.4667    0.0000 C   0  0  0  0  0  0  0  0  0  0  0  0
    5.8250   -6.9792    0.0000 C   0  0  0  0  0  0  0  0  0  0  0  0
    5.8167   -5.9500    0.0000 C   0  0  0  0  0  0  0  0  0  0  0  0
    6.7292   -6.4625    0.0000 C   0  0  0  0  0  0  0  0  0  0  0  0
    6.4250   -6.9792    0.0000 C   0  0  0  0  0  0  0  0  0  0  0  0
    6.4250   -5.9417    0.0000 C   0  0  0  0  0  0  0  0  0  0  0  0
    5.5167   -5.4292    0.0000 C   0  0  0  0  0  0  0  0  0  0  0  0
    5.5250   -7.5042    0.0000 C   0  0  0  0  0  0  0  0  0  0  0  0
  2  1  1  0
  3  1  2  0
  4  6  2  0
  5  2  2  0
  6  3  1  0
  7  3  1  0
  8  2  1  0
  4  5  1  0
M  END

> <chembl_id>
CHEMBL286727

> <chembl_pref_name>
M-XYLENE

$$$$

     RDKit          2D

  9  9  0  0  0  0  0  0  0  0999 V2000
    3.6994   -0.7140    0.0000 F   0  0  0  0  0  0  0  0  0  0  0  0
    0.0000    0.0000    0.0000 O   0  0  0  0  0  0  0  0  0  0  0  0
    1.2282   -0.7140    0.0000 C   0  0  0  0  0  0  0  0  0  0  0  0
    2.8745   -0.7140    0.0000 C   0  0  0  0  0  0  0  0  0  0  0  0
    1.6462    0.0000    0.0000 C   0  0  0  0  0  0  0  0  0  0  0  0
    1.6462   -1.4280    0.0000 C   0  0  0  0  0  0  0  0  0  0  0  0
    2.4712    0.0000    0.0000 C   0  0  0  0  0  0  0  0  0  0  0  0
    2.4712   -1.4280    0.0000 C   0  0  0  0  0  0  0  0  0  0  0  0
    0.4069   -0.7140    0.0000 C   0  0  0  0  0  0  0  0  0  0  0  0
  1  4  1  0
  2  9  2  0
  3  5  2  0
  3  6  1  0
  3  9  1  0
  4  7  2  0
  4  8  1  0
  5  7  1  0
  6  8  2  0
M  END

> <chembl_id>
CHEMBL3183207

> <chembl_pref_name>
None

$$$$

     RDKit          2D

  7  7  0  0  0  0  0  0  0  0999 V2000
    0.7160    0.0000    0.0000 S   0  0  0  0  0  0  0  0  0  0  0  0
    0.7160   -0.8250    0.0000 C   0  0  0  0  0  0  0  0  0  0  0  0
    1.4320   -1.2338    0.0000 C   0  0  0  0  0  0  0  0  0  0  0  0
    0.0000   -1.2338    0.0000 C   0  0  0  0  0  0  0  0  0  0  0  0
    1.4320   -2.0588    0.0000 C   0  0  0  0  0  0  0  0  0  0  0  0
    0.0000   -2.0588    0.0000 C   0  0  0  0  0  0  0  0  0  0  0  0
    0.7160   -2.4775    0.0000 C   0  0  0  0  0  0  0  0  0  0  0  0
  1  2  1  0
  2  3  2  0
  2  4  1  0
  3  5  1  0
  4  6  2  0
  5  7  2  0
  6  7  1  0
M  END

> <chembl_id>
CHEMBL119405

> <chembl_pref_name>
BENZENETHIOL

$$$$

     RDKit          2D

  8  8  0  0  0  0  0  0  0  0999 V2000
    4.6167   -0.5542    0.0000 C   0  0  0  0  0  0  0  0  0  0  0  0
    4.6125    0.2708    0.0000 S   0  0  0  0  0  0  0  0  0  0  0  0
    4.6167   -2.2125    0.0000 C   0  0  0  0  0  0  0  0  0  0  0  0
    3.9042   -0.9750    0.0000 C   0  0  0  0  0  0  0  0  0  0  0  0
    5.3292   -0.9667    0.0000 C   0  0  0  0  0  0  0  0  0  0  0  0
    5.3292   -1.8000    0.0000 C   0  0  0  0  0  0  0  0  0  0  0  0
    3.9042   -1.8000    0.0000 C   0  0  0  0  0  0  0  0  0  0  0  0
    4.6167   -3.0375    0.0000 C   0  0  0  0  0  0  0  0  0  0  0  0
  2  1  1  0
  3  6  2  0
  4  1  1  0
  5  1  2  0
  6  5  1  0
  7  4  2  0
  8  3  1  0
  7  3  1  0
M  END

> <chembl_id>
CHEMBL119359

> <chembl_pref_name>
None

$$$$

     RDKit          2D

  9 10  0  0  0  0  0  0  0  0999 V2000
    3.5009  -12.2580    0.0000 C   0  0  0  0  0  0  0  0  0  0  0  0
    3.5148  -10.9190    0.0000 C   0  0  0  0  0  0  0  0  0  0  0  0
    3.0246  -11.5837    0.0000 O   0  0  0  0  0  0  0  0  0  0  0  0
    4.3007  -11.1841    0.0000 C   0  0  0  0  0  0  0  0  0  0  0  0
    4.2874  -12.0090    0.0000 C   0  0  0  0  0  0  0  0  0  0  0  0
    4.9942  -12.4311    0.0000 C   0  0  0  0  0  0  0  0  0  0  0  0
    5.7145  -12.0294    0.0000 C   0  0  0  0  0  0  0  0  0  0  0  0
    5.7239  -11.2013    0.0000 C   0  0  0  0  0  0  0  0  0  0  0  0
    5.0165  -10.7829    0.0000 C   0  0  0  0  0  0  0  0  0  0  0  0
  4  5  2  0
  4  2  1  0
  5  6  1  0
  2  3  1  0
  6  7  2  0
  3  1  1  0
  7  8  1  0
  1  5  1  0
  8  9  2  0
  9  4  1  0
M  END

> <chembl_id>
CHEMBL457734

> <chembl_pref_name>
None

$$$$

     RDKit          2D

  7  7  0  0  0  0  0  0  0  0999 V2000
    0.6167   -0.3000    0.0000 C   0  0  0  0  0  0  0  0  0  0  0  0
    0.1292   -0.6500    0.0000 N   0  0  0  0  0  0  0  0  0  0  0  0
    1.1042   -0.6500    0.0000 N   0  0  0  0  0  0  0  0  0  0  0  0
    0.9167   -1.2250    0.0000 C   0  0  0  0  0  0  0  0  0  0  0  0
    0.3167   -1.2250    0.0000 C   0  0  0  0  0  0  0  0  0  0  0  0
    0.6167    0.3000    0.0000 O   0  0  0  0  0  0  0  0  0  0  0  0
   -0.4375   -0.4667    0.0000 C   0  0  0  0  0  0  0  0  0  0  0  0
  2  1  1  0
  3  1  2  0
  4  3  1  0
  5  2  1  0
  6  1  1  0
  7  2  1  0
  4  5  2  0
M  END

> <chembl_id>
CHEMBL157963

> <chembl_pref_name>
None

$$$$

     RDKit          2D

 10 10  0  0  0  0  0  0  0  0999 V2000
   -1.7041   -0.5362    0.0000 O   0  0  0  0  0  0  0  0  0  0  0  0
   -0.9896   -0.9487    0.0000 C   0  0  0  0  0  0  0  0  0  0  0  0
   -0.2751   -0.5362    0.0000 C   0  0  0  0  0  0  0  0  0  0  0  0
   -0.2751    0.2888    0.0000 C   0  0  0  0  0  0  0  0  0  0  0  0
   -0.9896    0.7013    0.0000 F   0  0  0  0  0  0  0  0  0  0  0  0
    0.4393   -0.9487    0.0000 C   0  0  0  0  0  0  0  0  0  0  0  0
    1.1538   -0.5362    0.0000 C   0  0  0  0  0  0  0  0  0  0  0  0
    1.1538    0.2888    0.0000 C   0  0  0  0  0  0  0  0  0  0  0  0
    0.4393    0.7013    0.0000 C   0  0  0  0  0  0  0  0  0  0  0  0
    0.4393    1.5263    0.0000 F   0  0  0  0  0  0  0  0  0  0  0  0
  2  1  1  0
  3  2  1  0
  3  4  2  0
  3  6  1  0
  4  5  1  0
  4  9  1  0
  7  6  2  0
  8  7  1  0
  9  8  2  0
  9 10  1  0
M  END

> <chembl_id>
CHEMBL1232182

> <chembl_pref_name>
None

$$$$

     RDKit          2D

 10 11  0  0  0  0  0  0  0  0999 V2000
    5.9875   -2.2917    0.0000 N   0  0  0  0  0  0  0  0  0  0  0  0
    4.8667   -2.6000    0.0000 C   0  0  0  0  0  0  0  0  0  0  0  0
    5.3875   -2.2917    0.0000 C   0  0  0  0  0  0  0  0  0  0  0  0
    4.3417   -3.5042    0.0000 N   0  0  0  0  0  0  0  0  0  0  0  0
    5.9875   -1.6917    0.0000 C   0  0  0  0  0  0  0  0  0  0  0  0
    5.3875   -1.6917    0.0000 C   0  0  0  0  0  0  0  0  0  0  0  0
    4.8667   -3.2000    0.0000 C   0  0  0  0  0  0  0  0  0  0  0  0
    4.3417   -2.3000    0.0000 C   0  0  0  0  0  0  0  0  0  0  0  0
    3.8292   -3.2000    0.0000 C   0  0  0  0  0  0  0  0  0  0  0  0
    3.8292   -2.6000    0.0000 C   0  0  0  0  0  0  0  0  0  0  0  0
  2  3  1  0
  3  1  1  0
  4  7  2  0
  5  1  1  0
  6  5  1  0
  7  2  1  0
  8  2  2  0
  9 10  2  0
 10  8  1  0
  6  3  1  0
  4  9  1  0
M  END

> <chembl_id>
CHEMBL323325

> <chembl_pref_name>
None

$$$$

     RDKit          2D

  9  9  0  0  0  0  0  0  0  0999 V2000
   -1.6325    0.0552    0.0000 O   0  0  0  0  0  0  0  0  0  0  0  0
   -0.1804    0.2852    0.0000 N   0  0  0  0  0  0  0  0  0  0  0  0
    0.2321   -0.9843    0.0000 N   0  0  0  0  0  0  0  0  0  0  0  0
   -0.5929   -0.9843    0.0000 N   0  0  0  0  0  0  0  0  0  0  0  0
   -0.1804    1.1102    0.0000 N   0  0  0  0  0  0  0  0  0  0  0  0
    0.4870   -0.1997    0.0000 C   0  0  0  0  0  0  0  0  0  0  0  0
   -0.8478   -0.1997    0.0000 C   0  0  0  0  0  0  0  0  0  0  0  0
    1.2717    0.0552    0.0000 C   0  0  0  0  0  0  0  0  0  0  0  0
    1.4432    0.8622    0.0000 C   0  0  0  0  0  0  0  0  0  0  0  0
  1  7  2  0
  2  5  1  0
  2  6  1  0
  2  7  1  0
  3  4  1  0
  3  6  2  0
  4  7  1  0
  6  8  1  0
  8  9  1  0
M  END

> <chembl_id>
CHEMBL1985588

> <chembl_pref_name>
None

$$$$

     RDKit          2D

 11 12  0  0  0  0  0  0  0  0999 V2000
    5.7250   -2.3917    0.0000 C   0  0  0  0  0  0  0  0  0  0  0  0
    5.7292   -1.5542    0.0000 C   0  0  0  0  0  0  0  0  0  0  0  0
    6.4417   -2.8042    0.0000 C   0  0  0  0  0  0  0  0  0  0  0  0
    6.4417   -3.6292    0.0000 O   0  0  0  0  0  0  0  0  0  0  0  0
    7.1667   -1.5542    0.0000 C   0  0  0  0  0  0  0  0  0  0  0  0
    5.0125   -2.8000    0.0000 C   0  0  0  0  0  0  0  0  0  0  0  0
    6.4417   -1.1375    0.0000 C   0  0  0  0  0  0  0  0  0  0  0  0
    7.1667   -2.3917    0.0000 C   0  0  0  0  0  0  0  0  0  0  0  0
    5.0125   -1.1417    0.0000 C   0  0  0  0  0  0  0  0  0  0  0  0
    4.3000   -2.3875    0.0000 C   0  0  0  0  0  0  0  0  0  0  0  0
    4.3000   -1.5625    0.0000 C   0  0  0  0  0  0  0  0  0  0  0  0
  2  1  1  0
  3  1  1  0
  4  3  1  0
  5  8  1  0
  6  1  2  0
  7  2  1  0
  8  3  1  0
  9  2  2  0
 10  6  1  0
 11 10  2  0
  7  5  1  0
  9 11  1  0
M  END

> <chembl_id>
CHEMBL357784

> <chembl_pref_name>
None

$$$$

     RDKit          2D

 11 11  0  0  0  0  0  0  0  0999 V2000
    7.0875   -5.6417    0.0000 C   0  0  0  0  0  0  0  0  0  0  0  0
    6.2875   -5.8417    0.0000 C   0  0  0  0  0  0  0  0  0  0  0  0
    6.1667   -6.6542    0.0000 C   0  0  0  0  0  0  0  0  0  0  0  0
    7.8875   -5.4417    0.0000 C   0  0  0  0  0  0  0  0  0  0  0  0
    4.8542   -5.8167    0.0000 N   0  0  0  0  0  0  0  0  0  0  0  0
    5.5750   -5.4167    0.0000 C   0  0  0  0  0  0  0  0  0  0  0  0
    5.3917   -6.9625    0.0000 C   0  0  0  0  0  0  0  0  0  0  0  0
    6.8042   -7.1667    0.0000 C   0  0  0  0  0  0  0  0  0  0  0  0
    6.6917   -7.9792    0.0000 C   0  0  0  0  0  0  0  0  0  0  0  0
    5.2750   -7.7750    0.0000 C   0  0  0  0  0  0  0  0  0  0  0  0
    5.9250   -8.2875    0.0000 C   0  0  0  0  0  0  0  0  0  0  0  0
  2  1  2  0
  3  2  1  0
  4  1  2  0
  5  6  1  0
  6  2  1  0
  7  3  2  0
  8  3  1  0
  9  8  2  0
 10  7  1  0
 11  9  1  0
 11 10  2  0
M  END

> <chembl_id>
CHEMBL8712

> <chembl_pref_name>
None

$$$$

     RDKit          2D

  9  9  0  0  0  0  0  0  0  0999 V2000
    0.0915   -3.2208    0.0000 N   0  0  0  0  0  0  0  0  0  0  0  0
    0.0915   -4.0458    0.0000 C   0  0  0  0  0  0  0  0  0  0  0  0
    0.8060   -4.4583    0.0000 C   0  0  0  0  0  0  0  0  0  0  0  0
    0.8060   -5.2833    0.0000 C   0  0  0  0  0  0  0  0  0  0  0  0
    0.0915   -5.6958    0.0000 C   0  0  0  0  0  0  0  0  0  0  0  0
   -0.6230   -5.2833    0.0000 C   0  0  0  0  0  0  0  0  0  0  0  0
   -0.6230   -4.4583    0.0000 C   0  0  0  0  0  0  0  0  0  0  0  0
   -1.3374   -5.6958    0.0000 N   0  0  0  0  0  0  0  0  0  0  0  0
    1.5204   -4.0458    0.0000 C   0  0  0  0  0  0  0  0  0  0  0  0
  1  2  1  0
  2  3  2  0
  3  4  1  0
  4  5  2  0
  5  6  1  0
  6  7  2  0
  2  7  1  0
  6  8  1  0
  3  9  1  0
M  END

> <chembl_id>
CHEMBL541230

> <chembl_pref_name>
None

$$$$

     RDKit          2D

 10 10  0  0  0  0  0  0  0  0999 V2000
   16.1145    1.4390    0.0000 C   0  0  0  0  0  0  0  0  0  0  0  0
   16.1133    0.6132    0.0000 C   0  0  0  0  0  0  0  0  0  0  0  0
   16.8269    0.2011    0.0000 N   0  0  0  0  0  0  0  0  0  0  0  0
   17.5420    0.6137    0.0000 C   0  0  0  0  0  0  0  0  0  0  0  0
   17.5391    1.4426    0.0000 C   0  0  0  0  0  0  0  0  0  0  0  0
   16.8251    1.8511    0.0000 C   0  0  0  0  0  0  0  0  0  0  0  0
   18.2523    1.8574    0.0000 C   0  0  0  0  0  0  0  0  0  0  0  0
   18.9669    1.4483    0.0000 O   0  0  0  0  0  0  0  0  0  0  0  0
   18.2492    2.6808    0.0000 O   0  0  0  0  0  0  0  0  0  0  0  0
   18.2558    0.2030    0.0000 F   0  0  0  0  0  0  0  0  0  0  0  0
  2  3  1  0
  5  6  2  0
  6  1  1  0
  1  2  2  0
  3  4  2  0
  7  8  1  0
  7  9  2  0
  5  7  1  0
  4  5  1  0
  4 10  1  0
M  END

> <chembl_id>
CHEMBL394308

> <chembl_pref_name>
None

$$$$

     RDKit          2D

  9  9  0  0  0  0  0  0  0  0999 V2000
   -0.5635    2.6260    0.0000 Cl  0  0  0  0  0  0  0  0  0  0  0  0
    0.1510    1.3885    0.0000 N   0  0  0  0  0  0  0  0  0  0  0  0
    0.8655    4.2760    0.0000 N   0  0  0  0  0  0  0  0  0  0  0  0
    0.8655    2.6260    0.0000 C   0  0  0  0  0  0  0  0  0  0  0  0
    0.1510    2.2135    0.0000 C   0  0  0  0  0  0  0  0  0  0  0  0
    1.5799    2.2135    0.0000 C   0  0  0  0  0  0  0  0  0  0  0  0
    0.8655    3.4510    0.0000 C   0  0  0  0  0  0  0  0  0  0  0  0
    0.8655    0.9760    0.0000 C   0  0  0  0  0  0  0  0  0  0  0  0
    1.5799    1.3885    0.0000 C   0  0  0  0  0  0  0  0  0  0  0  0
  1  5  1  0
  2  5  1  0
  2  8  2  0
  3  7  3  0
  4  5  2  0
  4  6  1  0
  4  7  1  0
  6  9  2  0
  8  9  1  0
M  END

> <chembl_id>
CHEMBL1969978

> <chembl_pref_name>
None

$$$$

     RDKit          2D

 10 10  0  0  0  0  0  0  0  0999 V2000
   -0.9716    2.2557    0.0000 C   0  0  0  0  0  0  0  0  0  0  0  0
   -0.9728    1.4295    0.0000 C   0  0  0  0  0  0  0  0  0  0  0  0
   -0.2611    1.0174    0.0000 C   0  0  0  0  0  0  0  0  0  0  0  0
    0.4570    1.4301    0.0000 C   0  0  0  0  0  0  0  0  0  0  0  0
    0.4538    2.2597    0.0000 C   0  0  0  0  0  0  0  0  0  0  0  0
   -0.2631    2.6679    0.0000 C   0  0  0  0  0  0  0  0  0  0  0  0
   -0.2624    0.1938    0.0000 O   0  0  0  0  0  0  0  0  0  0  0  0
   -0.9764   -0.2169    0.0000 C   0  0  0  0  0  0  0  0  0  0  0  0
    1.1651    2.6751    0.0000 C   0  0  0  0  0  0  0  0  0  0  0  0
    1.8803    2.2668    0.0000 N   0  0  0  0  0  0  0  0  0  0  0  0
  2  3  1  0
  5  6  2  0
  6  1  1  0
  1  2  2  0
  3  7  1  0
  3  4  2  0
  7  8  1  0
  5  9  1  0
  4  5  1  0
  9 10  1  0
M  END

> <chembl_id>
CHEMBL468622

> <chembl_pref_name>
None

$$$$

     RDKit          2D

  9  9  0  0  0  0  0  0  0  0999 V2000
    7.6828  -13.8490    0.0000 S   0  0  0  0  0  0  0  0  0  0  0  0
    8.0953  -14.5635    0.0000 C   0  0  0  0  0  0  0  0  0  0  0  0
    8.9203  -14.5635    0.0000 C   0  0  0  0  0  0  0  0  0  0  0  0
    6.8578  -13.8490    0.0000 C   0  0  0  0  0  0  0  0  0  0  0  0
    6.4453  -14.5635    0.0000 C   0  0  0  0  0  0  0  0  0  0  0  0
    5.6203  -14.5635    0.0000 C   0  0  0  0  0  0  0  0  0  0  0  0
    5.2078  -13.8490    0.0000 C   0  0  0  0  0  0  0  0  0  0  0  0
    5.6203  -13.1345    0.0000 C   0  0  0  0  0  0  0  0  0  0  0  0
    6.4453  -13.1345    0.0000 C   0  0  0  0  0  0  0  0  0  0  0  0
  2  3  2  0
  1  2  1  0
  4  5  1  0
  5  6  2  0
  6  7  1  0
  7  8  2  0
  8  9  1  0
  4  9  2  0
  1  4  1  0
M  END

> <chembl_id>
CHEMBL2323850

> <chembl_pref_name>
PHENYL VINYL SULFIDE

$$$$

     RDKit          2D

  8  8  0  0  0  0  0  0  0  0999 V2000
    2.4208   -2.2292    0.0000 C   0  0  0  0  0  0  0  0  0  0  0  0
    2.4208   -3.0542    0.0000 C   0  0  0  0  0  0  0  0  0  0  0  0
    3.1328   -3.4624    0.0000 C   0  0  0  0  0  0  0  0  0  0  0  0
    3.8449   -3.0542    0.0000 C   0  0  0  0  0  0  0  0  0  0  0  0
    3.8449   -2.2292    0.0000 C   0  0  0  0  0  0  0  0  0  0  0  0
    3.1328   -1.8124    0.0000 N   0  0  0  0  0  0  0  0  0  0  0  0
    4.5605   -1.8187    0.0000 O   0  0  0  0  0  0  0  0  0  0  0  0
    1.7051   -1.8187    0.0000 O   0  0  0  0  0  0  0  0  0  0  0  0
  1  2  1  0
  1  6  1  0
  2  3  2  0
  3  4  1  0
  4  5  2  0
  5  6  1  0
  5  7  1  0
  1  8  2  0
M  END

> <chembl_id>
CHEMBL3086507

> <chembl_pref_name>
None

$$$$

     RDKit          2D

 10 10  0  0  0  0  0  0  0  0999 V2000
   -1.5430   -0.0970    0.0000 O   0  0  0  0  0  0  0  0  0  0  0  0
   -0.0909    0.1329    0.0000 N   0  0  0  0  0  0  0  0  0  0  0  0
    0.3216   -1.1366    0.0000 N   0  0  0  0  0  0  0  0  0  0  0  0
   -0.5034   -1.1366    0.0000 N   0  0  0  0  0  0  0  0  0  0  0  0
    0.5765   -0.3520    0.0000 C   0  0  0  0  0  0  0  0  0  0  0  0
   -0.7584   -0.3520    0.0000 C   0  0  0  0  0  0  0  0  0  0  0  0
   -0.0909    0.9579    0.0000 C   0  0  0  0  0  0  0  0  0  0  0  0
    1.3611   -0.0970    0.0000 C   0  0  0  0  0  0  0  0  0  0  0  0
   -0.8054    1.3704    0.0000 C   0  0  0  0  0  0  0  0  0  0  0  0
    1.5327    0.7099    0.0000 C   0  0  0  0  0  0  0  0  0  0  0  0
  1  6  2  0
  2  5  1  0
  2  6  1  0
  2  7  1  0
  3  4  1  0
  3  5  2  0
  4  6  1  0
  5  8  1  0
  7  9  1  0
  8 10  1  0
M  END

> <chembl_id>
CHEMBL1976847

> <chembl_pref_name>
None

$$$$

     RDKit          2D

 10 10  0  0  0  0  0  0  0  0999 V2000
    8.4140  -14.6392    0.0000 C   0  0  0  0  0  0  0  0  0  0  0  0
    8.4129  -15.4588    0.0000 C   0  0  0  0  0  0  0  0  0  0  0  0
    9.1209  -15.8677    0.0000 N   0  0  0  0  0  0  0  0  0  0  0  0
    9.8306  -15.4583    0.0000 C   0  0  0  0  0  0  0  0  0  0  0  0
    9.8277  -14.6356    0.0000 C   0  0  0  0  0  0  0  0  0  0  0  0
    9.1191  -14.2304    0.0000 C   0  0  0  0  0  0  0  0  0  0  0  0
   10.5339  -14.2244    0.0000 C   0  0  0  0  0  0  0  0  0  0  0  0
   11.2431  -14.6303    0.0000 N   0  0  0  0  0  0  0  0  0  0  0  0
   11.2462  -15.4475    0.0000 C   0  0  0  0  0  0  0  0  0  0  0  0
   11.9555  -15.8534    0.0000 C   0  0  0  0  0  0  0  0  0  0  0  0
  1  2  2  0
  2  3  1  0
  3  4  2  0
  4  5  1  0
  5  6  2  0
  6  1  1  0
  5  7  1  0
  7  8  1  0
  8  9  1  0
  9 10  1  0
M  END

> <chembl_id>
CHEMBL2286832

> <chembl_pref_name>
None

$$$$

     RDKit          2D

  9  9  0  0  0  0  0  0  0  0999 V2000
    4.0667   -5.0542    0.0000 C   0  0  0  0  0  0  0  0  0  0  0  0
    4.3250   -4.2667    0.0000 C   0  0  0  0  0  0  0  0  0  0  0  0
    5.4042   -5.0542    0.0000 N   0  0  0  0  0  0  0  0  0  0  0  0
    4.7375   -5.5375    0.0000 O   0  0  0  0  0  0  0  0  0  0  0  0
    5.1500   -4.2667    0.0000 C   0  0  0  0  0  0  0  0  0  0  0  0
    3.2792   -5.3042    0.0000 C   0  0  0  0  0  0  0  0  0  0  0  0
    2.6667   -4.7542    0.0000 N   0  0  0  0  0  0  0  0  0  0  0  0
    5.6292   -3.5917    0.0000 O   0  0  0  0  0  0  0  0  0  0  0  0
    3.1125   -6.1167    0.0000 C   0  0  0  0  0  0  0  0  0  0  0  0
  2  1  2  0
  3  4  1  0
  4  1  1  0
  5  2  1  0
  6  1  1  0
  7  6  1  0
  8  5  1  0
  6  9  1  1
  3  5  2  0
M  END

> <chembl_id>
CHEMBL283019

> <chembl_pref_name>
None

$$$$

     RDKit          2D

 11 11  0  0  0  0  0  0  0  0999 V2000
    1.3026  -10.5035    0.0000 C   0  0  0  0  0  0  0  0  0  0  0  0
    1.3015  -11.3307    0.0000 C   0  0  0  0  0  0  0  0  0  0  0  0
    2.0163  -11.7436    0.0000 C   0  0  0  0  0  0  0  0  0  0  0  0
    2.7327  -11.3303    0.0000 C   0  0  0  0  0  0  0  0  0  0  0  0
    2.7298  -10.4998    0.0000 C   0  0  0  0  0  0  0  0  0  0  0  0
    2.0144  -10.0907    0.0000 C   0  0  0  0  0  0  0  0  0  0  0  0
    3.4427  -10.0846    0.0000 C   0  0  0  0  0  0  0  0  0  0  0  0
    4.1586  -10.4945    0.0000 C   0  0  0  0  0  0  0  0  0  0  0  0
    3.4395   -9.2598    0.0000 O   0  0  0  0  0  0  0  0  0  0  0  0
    4.8715  -10.0793    0.0000 C   0  0  0  0  0  0  0  0  0  0  0  0
    5.5830   -9.6640    0.0000 N   0  0  0  0  0  0  0  0  0  0  0  0
  1  2  2  0
  2  3  1  0
  3  4  2  0
  4  5  1  0
  5  6  2  0
  6  1  1  0
  5  7  1  0
  7  8  1  0
  7  9  1  0
  8 10  1  0
 10 11  3  0
M  ISO  1   7  14
M  END

> <chembl_id>
CHEMBL3251042

> <chembl_pref_name>
None

$$$$

     RDKit          2D

  9  9  0  0  0  0  0  0  0  0999 V2000
   -1.4504  -21.2475    0.0000 C   0  0  0  0  0  0  0  0  0  0  0  0
   -1.8623  -20.5327    0.0000 C   0  0  0  0  0  0  0  0  0  0  0  0
   -2.6902  -20.5327    0.0000 C   0  0  0  0  0  0  0  0  0  0  0  0
   -3.1020  -21.2475    0.0000 C   0  0  0  0  0  0  0  0  0  0  0  0
   -3.9300  -21.2475    0.0000 C   0  0  0  0  0  0  0  0  0  0  0  0
   -4.3419  -20.5327    0.0000 C   0  0  0  0  0  0  0  0  0  0  0  0
   -3.9300  -19.8180    0.0000 C   0  0  0  0  0  0  0  0  0  0  0  0
   -3.1020  -19.8180    0.0000 C   0  0  0  0  0  0  0  0  0  0  0  0
   -0.6225  -21.2475    0.0000 C   0  0  0  0  0  0  0  0  0  0  0  0
  1  2  2  0
  2  3  1  0
  3  4  1  0
  4  5  2  0
  5  6  1  0
  6  7  2  0
  7  8  1  0
  3  8  2  0
  1  9  1  0
M  END

> <chembl_id>
CHEMBL506013

> <chembl_pref_name>
None

$$$$

     RDKit          2D

 10 10  0  0  0  0  0  0  0  0999 V2000
   -4.9598   -5.3541    0.0000 C   0  0  0  0  0  0  0  0  0  0  0  0
   -4.9609   -6.1815    0.0000 C   0  0  0  0  0  0  0  0  0  0  0  0
   -4.2461   -6.5944    0.0000 C   0  0  0  0  0  0  0  0  0  0  0  0
   -3.5297   -6.1810    0.0000 C   0  0  0  0  0  0  0  0  0  0  0  0
   -3.5325   -5.3505    0.0000 C   0  0  0  0  0  0  0  0  0  0  0  0
   -4.2479   -4.9414    0.0000 C   0  0  0  0  0  0  0  0  0  0  0  0
   -2.8196   -4.9353    0.0000 C   0  0  0  0  0  0  0  0  0  0  0  0
   -2.1036   -5.3451    0.0000 C   0  0  0  0  0  0  0  0  0  0  0  0
   -2.8227   -4.1103    0.0000 O   0  0  0  0  0  0  0  0  0  0  0  0
   -5.6757   -6.5934    0.0000 C   0  0  0  0  0  0  0  0  0  0  0  0
  2  3  1  0
  5  6  2  0
  6  1  1  0
  1  2  2  0
  5  7  1  0
  3  4  2  0
  7  8  1  0
  7  9  2  0
  4  5  1  0
  2 10  1  0
M  END

> <chembl_id>
CHEMBL271871

> <chembl_pref_name>
None

$$$$

     RDKit          2D

 11 11  0  0  0  0  0  0  0  0999 V2000
   14.5292    1.4895    0.0000 C   0  0  0  0  0  0  0  0  0  0  0  0
   14.5292    2.3145    0.0000 C   0  0  0  0  0  0  0  0  0  0  0  0
   15.2453    2.7270    0.0000 N   0  0  0  0  0  0  0  0  0  0  0  0
   15.2511    1.0770    0.0000 C   0  0  0  0  0  0  0  0  0  0  0  0
   13.8245    1.0770    0.0000 C   0  0  0  0  0  0  0  0  0  0  0  0
   15.9558    2.3203    0.0000 C   0  0  0  0  0  0  0  0  0  0  0  0
   13.8073    2.7270    0.0000 C   0  0  0  0  0  0  0  0  0  0  0  0
   13.8245    0.2520    0.0000 C   0  0  0  0  0  0  0  0  0  0  0  0
   15.2511    0.2520    0.0000 C   0  0  0  0  0  0  0  0  0  0  0  0
   14.5292   -0.1605    0.0000 C   0  0  0  0  0  0  0  0  0  0  0  0
   14.5278    3.1395    0.0000 H   0  0  0  0  0  0  0  0  0  0  0  0
  1  2  1  0
  3  2  1  0
  4  1  2  0
  5  1  1  0
  6  3  1  0
  2  7  1  1
  8  5  2  0
  9  4  1  0
 10  8  1  0
  9 10  2  0
  2 11  1  6
M  END

> <chembl_id>
CHEMBL1907781

> <chembl_pref_name>
None

$$$$

     RDKit          2D

  8  8  0  0  0  0  0  0  0  0999 V2000
    6.0542   -7.3875    0.0000 N   0  0  0  0  0  0  0  0  0  0  0  0
    5.9417   -6.4250    0.0000 C   0  0  0  0  0  0  0  0  0  0  0  0
    5.4667   -7.2667    0.0000 S   0  0  0  0  0  0  0  0  0  0  0  0
    5.3917   -6.6667    0.0000 C   0  0  0  0  0  0  0  0  0  0  0  0
    6.3500   -6.8667    0.0000 C   0  0  0  0  0  0  0  0  0  0  0  0
    6.9417   -6.8000    0.0000 O   0  0  0  0  0  0  0  0  0  0  0  0
    4.8750   -6.3750    0.0000 C   0  0  0  0  0  0  0  0  0  0  0  0
    4.8667   -5.7750    0.0000 N   0  0  0  0  0  0  0  0  0  0  0  0
  2  5  1  0
  3  1  1  0
  4  3  1  0
  5  1  2  0
  6  5  1  0
  7  4  1  0
  8  7  1  0
  2  4  2  0
M  END

> <chembl_id>
CHEMBL133628

> <chembl_pref_name>
None

$$$$

     RDKit          2D

 11 11  0  0  0  0  0  0  0  0999 V2000
   27.1475  -14.3297    0.0000 C   0  0  0  0  0  0  0  0  0  0  0  0
   27.1463  -15.1492    0.0000 C   0  0  0  0  0  0  0  0  0  0  0  0
   27.8544  -15.5582    0.0000 N   0  0  0  0  0  0  0  0  0  0  0  0
   28.5641  -15.1488    0.0000 C   0  0  0  0  0  0  0  0  0  0  0  0
   28.5612  -14.3261    0.0000 C   0  0  0  0  0  0  0  0  0  0  0  0
   27.8526  -13.9208    0.0000 C   0  0  0  0  0  0  0  0  0  0  0  0
   29.2674  -13.9148    0.0000 C   0  0  0  0  0  0  0  0  0  0  0  0
   29.2724  -15.5562    0.0000 C   0  0  0  0  0  0  0  0  0  0  0  0
   29.9795  -15.1465    0.0000 C   0  0  0  0  0  0  0  0  0  0  0  0
   30.6878  -15.5540    0.0000 C   0  0  0  0  0  0  0  0  0  0  0  0
   29.9782  -14.3294    0.0000 O   0  0  0  0  0  0  0  0  0  0  0  0
  1  2  2  0
  2  3  1  0
  3  4  2  0
  4  5  1  0
  5  6  2  0
  6  1  1  0
  5  7  1  0
  4  8  1  0
  8  9  1  0
  9 10  1  0
  9 11  2  0
M  END

> <chembl_id>
CHEMBL3229452

> <chembl_pref_name>
None

$$$$

     RDKit          2D

  8  8  0  0  0  0  0  0  0  0999 V2000
    4.5948  -12.1752    0.0000 N   0  0  0  0  0  0  0  0  0  0  0  0
    5.3058  -11.7622    0.0000 C   0  0  0  0  0  0  0  0  0  0  0  0
    6.0732  -12.0986    0.0000 N   0  0  0  0  0  0  0  0  0  0  0  0
    4.5562  -13.0050    0.0000 C   0  0  0  0  0  0  0  0  0  0  0  0
    3.9756  -11.6185    0.0000 S   0  0  0  0  0  0  0  0  0  0  0  0
    4.3100  -10.8763    0.0000 C   0  0  0  0  0  0  0  0  0  0  0  0
    5.1297  -10.9562    0.0000 C   0  0  0  0  0  0  0  0  0  0  0  0
    6.7390  -11.6090    0.0000 C   0  0  0  0  0  0  0  0  0  0  0  0
  1  2  1  0
  2  3  2  0
  1  4  1  0
  1  5  1  0
  5  6  1  0
  6  7  2  0
  2  7  1  0
  3  8  1  0
M  END

> <chembl_id>
CHEMBL3303320

> <chembl_pref_name>
None

$$$$

     RDKit          2D

  9  9  0  0  0  0  0  0  0  0999 V2000
   -0.8129    2.2055    0.0000 O   0  0  0  0  0  0  0  0  0  0  0  0
    1.3305    0.1430    0.0000 O   0  0  0  0  0  0  0  0  0  0  0  0
   -0.8129    1.3805    0.0000 N   0  0  0  0  0  0  0  0  0  0  0  0
   -0.0984    0.1430    0.0000 C   0  0  0  0  0  0  0  0  0  0  0  0
   -0.0984    0.9680    0.0000 C   0  0  0  0  0  0  0  0  0  0  0  0
   -0.8129   -0.2695    0.0000 C   0  0  0  0  0  0  0  0  0  0  0  0
   -1.5274    0.9680    0.0000 C   0  0  0  0  0  0  0  0  0  0  0  0
   -1.5274    0.1430    0.0000 C   0  0  0  0  0  0  0  0  0  0  0  0
    0.6160   -0.2695    0.0000 C   0  0  0  0  0  0  0  0  0  0  0  0
  1  3  1  0
  2  9  1  0
  3  5  2  0
  3  7  1  0
  4  5  1  0
  4  6  2  0
  4  9  1  0
  6  8  1  0
  7  8  2  0
M  CHG  2   1  -1   3   1
M  END

> <chembl_id>
CHEMBL1985503

> <chembl_pref_name>
MEPIROXOL

$$$$

     RDKit          2D

  9  9  0  0  0  0  0  0  0  0999 V2000
   16.7764  -12.6574    0.0000 N   0  0  0  0  0  0  0  0  0  0  0  0
   17.4922  -12.2450    0.0000 C   0  0  0  0  0  0  0  0  0  0  0  0
   18.2080  -12.6574    0.0000 C   0  0  0  0  0  0  0  0  0  0  0  0
   18.9197  -12.2450    0.0000 C   0  0  0  0  0  0  0  0  0  0  0  0
   19.0086  -11.4228    0.0000 C   0  0  0  0  0  0  0  0  0  0  0  0
   19.8146  -11.2503    0.0000 N   0  0  0  0  0  0  0  0  0  0  0  0
   20.2271  -11.9661    0.0000 C   0  0  0  0  0  0  0  0  0  0  0  0
   19.6741  -12.5784    0.0000 N   0  0  0  0  0  0  0  0  0  0  0  0
   18.2092  -13.4824    0.0000 C   0  0  0  0  0  0  0  0  0  0  0  0
  1  2  1  0
  2  3  1  0
  3  4  1  0
  4  5  2  0
  5  6  1  0
  6  7  2  0
  7  8  1  0
  4  8  1  0
  3  9  1  0
M  END

> <chembl_id>
CHEMBL322988

> <chembl_pref_name>
None

$$$$

     RDKit          2D

 10 10  0  0  0  0  0  0  0  0999 V2000
    2.7125   -2.8417    0.0000 N   0  0  0  0  0  0  0  0  0  0  0  0
    0.6375   -2.8542    0.0000 C   0  0  0  0  0  0  0  0  0  0  0  0
    0.1167   -3.1542    0.0000 C   0  0  0  0  0  0  0  0  0  0  0  0
    1.1542   -3.1542    0.0000 C   0  0  0  0  0  0  0  0  0  0  0  0
   -0.4000   -2.8542    0.0000 O   0  0  0  0  0  0  0  0  0  0  0  0
    2.1917   -3.1417    0.0000 C   0  0  0  0  0  0  0  0  0  0  0  0
    0.6375   -4.0542    0.0000 C   0  0  0  0  0  0  0  0  0  0  0  0
    0.1167   -3.7542    0.0000 C   0  0  0  0  0  0  0  0  0  0  0  0
    1.1542   -3.7542    0.0000 C   0  0  0  0  0  0  0  0  0  0  0  0
    1.6750   -2.8500    0.0000 C   0  0  0  0  0  0  0  0  0  0  0  0
  2  4  2  0
  3  2  1  0
  4 10  1  0
  5  3  1  0
  6  1  1  0
  7  9  2  0
  8  7  1  0
  9  4  1  0
 10  6  1  0
  3  8  2  0
M  END

> <chembl_id>
CHEMBL145584

> <chembl_pref_name>
None

$$$$

     RDKit          2D

 11 12  0  0  1  0  0  0  0  0999 V2000
   -3.7596  -22.5656    0.0000 C   0  0  0  0  0  0  0  0  0  0  0  0
   -3.7608  -23.3894    0.0000 C   0  0  0  0  0  0  0  0  0  0  0  0
   -3.0492  -23.8004    0.0000 C   0  0  0  0  0  0  0  0  0  0  0  0
   -3.0510  -22.1548    0.0000 C   0  0  0  0  0  0  0  0  0  0  0  0
   -2.3387  -22.5621    0.0000 C   0  0  0  0  0  0  0  0  0  0  0  0
   -2.3339  -23.3894    0.0000 C   0  0  0  0  0  0  0  0  0  0  0  0
   -1.5455  -23.6404    0.0000 C   0  0  0  0  0  0  0  0  0  0  0  0
   -1.0631  -22.9682    0.0000 C   0  0  0  0  0  0  0  0  0  0  0  0
   -1.5534  -22.3018    0.0000 C   0  0  0  0  0  0  0  0  0  0  0  0
   -1.3042  -21.5192    0.0000 O   0  0  0  0  0  0  0  0  0  0  0  0
   -3.0501  -24.6217    0.0000 C   0  0  0  0  0  0  0  0  0  0  0  0
  2  3  1  0
  3  6  2  0
  1  2  2  0
  5  4  2  0
  6  7  1  0
  7  8  1  0
  9  8  1  0
  9  5  1  0
  4  1  1  0
  9 10  1  6
  5  6  1  0
  3 11  1  0
M  END

> <chembl_id>
CHEMBL202751

> <chembl_pref_name>
None

$$$$

     RDKit          2D

 10 10  0  0  0  0  0  0  0  0999 V2000
   -5.4559    2.4664    0.0000 C   0  0  0  0  0  0  0  0  0  0  0  0
   -5.4572    1.6401    0.0000 C   0  0  0  0  0  0  0  0  0  0  0  0
   -4.7453    1.2279    0.0000 C   0  0  0  0  0  0  0  0  0  0  0  0
   -4.0272    1.6407    0.0000 C   0  0  0  0  0  0  0  0  0  0  0  0
   -4.0303    2.4704    0.0000 C   0  0  0  0  0  0  0  0  0  0  0  0
   -4.7473    2.8784    0.0000 C   0  0  0  0  0  0  0  0  0  0  0  0
   -3.3191    2.8857    0.0000 C   0  0  0  0  0  0  0  0  0  0  0  0
   -2.6038    2.4774    0.0000 N   0  0  0  0  0  0  0  0  0  0  0  0
   -2.5997    1.6538    0.0000 O   0  0  0  0  0  0  0  0  0  0  0  0
   -1.8925    2.8928    0.0000 C   0  0  0  0  0  0  0  0  0  0  0  0
  2  3  1  0
  5  6  2  0
  6  1  1  0
  1  2  2  0
  5  7  1  0
  3  4  2  0
  7  8  2  0
  8  9  1  0
  4  5  1  0
  8 10  1  0
M  CHG  2   8   1   9  -1
M  END

> <chembl_id>
CHEMBL1642495

> <chembl_pref_name>
None

$$$$

     RDKit          2D

  9  9  0  0  0  0  0  0  0  0999 V2000
   10.7284  -12.0774    0.0000 N   0  0  0  0  0  0  0  0  0  0  0  0
   11.4351  -11.6669    0.0000 C   0  0  0  0  0  0  0  0  0  0  0  0
   12.1523  -12.0885    0.0000 N   0  0  0  0  0  0  0  0  0  0  0  0
   10.7274  -12.9023    0.0000 C   0  0  0  0  0  0  0  0  0  0  0  0
   10.0133  -11.6694    0.0000 C   0  0  0  0  0  0  0  0  0  0  0  0
   10.0138  -10.8444    0.0000 C   0  0  0  0  0  0  0  0  0  0  0  0
   10.7248  -10.4303    0.0000 C   0  0  0  0  0  0  0  0  0  0  0  0
   11.4342  -10.8409    0.0000 C   0  0  0  0  0  0  0  0  0  0  0  0
    9.3028  -12.0817    0.0000 N   0  0  0  0  0  0  0  0  0  0  0  0
  1  2  1  0
  2  3  2  0
  1  4  1  0
  1  5  1  0
  5  6  2  0
  6  7  1  0
  7  8  2  0
  8  2  1  0
  5  9  1  0
M  END

> <chembl_id>
CHEMBL3304065

> <chembl_pref_name>
None

$$$$

     RDKit          2D

 10 10  0  0  0  0  0  0  0  0999 V2000
    1.4289    0.4125    0.0000 N   0  0  0  0  0  0  0  0  0  0  0  0
    1.4289   -0.4125    0.0000 C   0  0  0  0  0  0  0  0  0  0  0  0
    2.1434   -0.8250    0.0000 O   0  0  0  0  0  0  0  0  0  0  0  0
    0.7145   -0.8250    0.0000 N   0  0  0  0  0  0  0  0  0  0  0  0
    0.0000   -0.4125    0.0000 C   0  0  0  0  0  0  0  0  0  0  0  0
   -0.7145   -0.8250    0.0000 N   0  0  0  0  0  0  0  0  0  0  0  0
    0.0000    0.4125    0.0000 C   0  0  0  0  0  0  0  0  0  0  0  0
    0.7145    0.8250    0.0000 C   0  0  0  0  0  0  0  0  0  0  0  0
   -1.4289   -0.4125    0.0000 C   0  0  0  0  0  0  0  0  0  0  0  0
   -2.1434   -0.8250    0.0000 C   0  0  0  0  0  0  0  0  0  0  0  0
  1  2  1  0
  2  3  2  0
  2  4  1  0
  4  5  1  0
  5  6  1  0
  5  7  2  0
  7  8  1  0
  1  8  2  0
  9 10  1  0
  6  9  1  0
M  END

> <chembl_id>
CHEMBL2063065

> <chembl_pref_name>
None

$$$$

     RDKit          2D

  9  9  0  0  0  0  0  0  0  0999 V2000
    9.1286   -3.2654    0.0000 N   0  0  0  0  0  0  0  0  0  0  0  0
    9.9392   -3.4055    0.0000 N   0  0  0  0  0  0  0  0  0  0  0  0
   10.3222   -2.6867    0.0000 C   0  0  0  0  0  0  0  0  0  0  0  0
    9.7477   -2.0858    0.0000 O   0  0  0  0  0  0  0  0  0  0  0  0
    9.0062   -2.4516    0.0000 C   0  0  0  0  0  0  0  0  0  0  0  0
   11.1499   -2.5872    0.0000 O   0  0  0  0  0  0  0  0  0  0  0  0
    8.2921   -2.0365    0.0000 C   0  0  0  0  0  0  0  0  0  0  0  0
    7.5764   -2.4469    0.0000 C   0  0  0  0  0  0  0  0  0  0  0  0
    6.8631   -2.0325    0.0000 N   0  0  0  0  0  0  0  0  0  0  0  0
  5  1  2  0
  1  2  1  0
  3  6  1  0
  5  7  1  0
  7  8  1  0
  2  3  2  0
  8  9  1  0
  3  4  1  0
  4  5  1  0
M  END

> <chembl_id>
CHEMBL1186275

> <chembl_pref_name>
None

$$$$

     RDKit          2D

 10 10  0  0  0  0  0  0  0  0999 V2000
    1.4228    0.6562    0.0000 O   0  0  0  0  0  0  0  0  0  0  0  0
    0.7084    0.2437    0.0000 C   0  0  0  0  0  0  0  0  0  0  0  0
    0.7084   -0.5813    0.0000 N   0  0  0  0  0  0  0  0  0  0  0  0
   -0.0061    0.6563    0.0000 C   0  0  0  0  0  0  0  0  0  0  0  0
   -0.0061    1.4813    0.0000 N   0  0  0  0  0  0  0  0  0  0  0  0
   -0.7206    0.2438    0.0000 C   0  0  0  0  0  0  0  0  0  0  0  0
   -1.4350    0.6563    0.0000 N   0  0  0  0  0  0  0  0  0  0  0  0
   -0.7206   -0.5812    0.0000 N   0  0  0  0  0  0  0  0  0  0  0  0
   -0.0061   -0.9938    0.0000 C   0  0  0  0  0  0  0  0  0  0  0  0
   -0.0061   -1.8188    0.0000 O   0  0  0  0  0  0  0  0  0  0  0  0
  2  1  2  0
  2  3  1  0
  2  4  1  0
  9  3  1  0
  4  5  1  0
  4  6  2  0
  6  7  1  0
  6  8  1  0
  9  8  1  0
  9 10  2  0
M  END

> <chembl_id>
CHEMBL34076

> <chembl_pref_name>
None

$$$$

     RDKit          2D

 10 10  0  0  0  0  0  0  0  0999 V2000
    6.0743   -5.9669    0.0000 C   0  0  0  0  0  0  0  0  0  0  0  0
    6.4868   -6.6814    0.0000 C   0  0  0  0  0  0  0  0  0  0  0  0
    7.3118   -6.6814    0.0000 C   0  0  0  0  0  0  0  0  0  0  0  0
    7.7243   -7.3959    0.0000 C   0  0  0  0  0  0  0  0  0  0  0  0
    7.3118   -8.1103    0.0000 C   0  0  0  0  0  0  0  0  0  0  0  0
    6.4868   -8.1103    0.0000 C   0  0  0  0  0  0  0  0  0  0  0  0
    6.0743   -7.3959    0.0000 C   0  0  0  0  0  0  0  0  0  0  0  0
    5.2493   -5.9669    0.0000 S   0  0  0  0  0  0  0  0  0  0  0  0
    4.8368   -6.6814    0.0000 C   0  0  0  0  0  0  0  0  0  0  0  0
    4.4243   -7.3959    0.0000 N   0  0  0  0  0  0  0  0  0  0  0  0
  1  2  1  0
  2  3  1  0
  3  4  2  0
  4  5  1  0
  5  6  2  0
  6  7  1  0
  2  7  2  0
  8  9  1  0
  9 10  3  0
  1  8  1  0
M  END

> <chembl_id>
CHEMBL2251721

> <chembl_pref_name>
BENZYL THIOCYANATE

$$$$

     RDKit          2D

  8  8  0  0  1  0  0  0  0  0999 V2000
    0.5417   -7.6792    0.0000 N   0  0  0  0  0  0  0  0  0  0  0  0
    1.7625   -7.6792    0.0000 C   0  0  0  0  0  0  0  0  0  0  0  0
    1.1542   -7.3167    0.0000 C   0  0  0  0  0  0  0  0  0  0  0  0
    2.3750   -6.6000    0.0000 O   0  0  0  0  0  0  0  0  0  0  0  0
    2.3750   -7.3167    0.0000 C   0  0  0  0  0  0  0  0  0  0  0  0
    0.5417   -8.4000    0.0000 C   0  0  0  0  0  0  0  0  0  0  0  0
    1.7625   -8.4000    0.0000 C   0  0  0  0  0  0  0  0  0  0  0  0
    1.1542   -8.7542    0.0000 C   0  0  0  0  0  0  0  0  0  0  0  0
  2  3  1  0
  3  1  2  0
  4  5  1  0
  5  2  1  0
  6  1  1  0
  7  8  1  0
  8  6  2  0
  7  2  2  0
M  END

> <chembl_id>
CHEMBL1235535

> <chembl_pref_name>
NICOTINYL ALCOHOL

$$$$

     RDKit          2D

 10 11  0  0  0  0  0  0  0  0999 V2000
   -2.3334    0.6096    0.0000 N   0  0  0  0  0  0  0  0  0  0  0  0
   -1.8484    1.2771    0.0000 N   0  0  0  0  0  0  0  0  0  0  0  0
   -2.3334    1.9444    0.0000 C   0  0  0  0  0  0  0  0  0  0  0  0
   -3.1180    0.8646    0.0000 C   0  0  0  0  0  0  0  0  0  0  0  0
   -3.1190    1.6897    0.0000 C   0  0  0  0  0  0  0  0  0  0  0  0
   -3.8302    2.0990    0.0000 C   0  0  0  0  0  0  0  0  0  0  0  0
   -4.5447    1.6879    0.0000 C   0  0  0  0  0  0  0  0  0  0  0  0
   -4.5437    0.8629    0.0000 C   0  0  0  0  0  0  0  0  0  0  0  0
   -3.8281    0.4490    0.0000 C   0  0  0  0  0  0  0  0  0  0  0  0
   -3.8300    2.9230    0.0000 O   0  0  0  0  0  0  0  0  0  0  0  0
  4  1  1  0
  1  2  1  0
  2  3  2  0
  3  5  1  0
  4  5  2  0
  4  9  1  0
  5  6  1  0
  6  7  1  0
  7  8  1  0
  8  9  1  0
  6 10  2  0
M  END

> <chembl_id>
CHEMBL594727

> <chembl_pref_name>
None

$$$$

     RDKit          2D

 10 10  0  0  0  0  0  0  0  0999 V2000
    9.4565   -2.1125    0.0000 C   0  0  0  0  0  0  0  0  0  0  0  0
   10.1240   -1.6276    0.0000 N   0  0  0  0  0  0  0  0  0  0  0  0
    9.8690   -0.8430    0.0000 C   0  0  0  0  0  0  0  0  0  0  0  0
    9.0440   -0.8430    0.0000 C   0  0  0  0  0  0  0  0  0  0  0  0
    8.7891   -1.6276    0.0000 N   0  0  0  0  0  0  0  0  0  0  0  0
    8.5592   -0.1755    0.0000 C   0  0  0  0  0  0  0  0  0  0  0  0
   10.3171   -0.1502    0.0000 C   0  0  0  0  0  0  0  0  0  0  0  0
   11.1409   -0.1917    0.0000 C   0  0  0  0  0  0  0  0  0  0  0  0
   11.5890    0.5011    0.0000 O   0  0  0  0  0  0  0  0  0  0  0  0
   11.5169   -0.9260    0.0000 O   0  0  0  0  0  0  0  0  0  0  0  0
  5  1  1  0
  4  6  1  0
  4  5  1  0
  3  7  1  0
  2  3  1  0
  7  8  1  0
  1  2  2  0
  8  9  2  0
  3  4  2  0
  8 10  1  0
M  END

> <chembl_id>
CHEMBL243929

> <chembl_pref_name>
None

$$$$

     RDKit          2D

  9  9  0  0  0  0  0  0  0  0999 V2000
   -0.0958   -3.4042    0.0000 C   0  0  0  0  0  0  0  0  0  0  0  0
   -1.1333   -4.0042    0.0000 C   0  0  0  0  0  0  0  0  0  0  0  0
    0.9417   -3.3917    0.0000 N   0  0  0  0  0  0  0  0  0  0  0  0
   -1.1333   -3.4042    0.0000 C   0  0  0  0  0  0  0  0  0  0  0  0
   -0.6125   -4.3042    0.0000 C   0  0  0  0  0  0  0  0  0  0  0  0
   -0.6125   -3.1042    0.0000 C   0  0  0  0  0  0  0  0  0  0  0  0
   -0.0958   -4.0042    0.0000 C   0  0  0  0  0  0  0  0  0  0  0  0
    0.4250   -3.1000    0.0000 C   0  0  0  0  0  0  0  0  0  0  0  0
   -1.6500   -4.3042    0.0000 C   0  0  0  0  0  0  0  0  0  0  0  0
  2  5  1  0
  3  8  1  0
  4  6  1  0
  5  7  2  0
  6  1  2  0
  7  1  1  0
  8  1  1  0
  9  2  1  0
  4  2  2  0
M  END

> <chembl_id>
CHEMBL273483

> <chembl_pref_name>
None

$$$$

     RDKit          2D

  9  9  0  0  0  0  0  0  0  0999 V2000
    1.4417   -4.3042    0.0000 N   0  0  0  0  0  0  0  0  0  0  0  0
    2.1542   -3.0792    0.0000 C   0  0  0  0  0  0  0  0  0  0  0  0
    3.5875   -3.0917    0.0000 N   0  0  0  0  0  0  0  0  0  0  0  0
    2.1542   -3.9000    0.0000 C   0  0  0  0  0  0  0  0  0  0  0  0
    2.8792   -2.6750    0.0000 C   0  0  0  0  0  0  0  0  0  0  0  0
    0.7250   -3.8917    0.0000 C   0  0  0  0  0  0  0  0  0  0  0  0
    1.4500   -2.6542    0.0000 C   0  0  0  0  0  0  0  0  0  0  0  0
    4.3042   -2.6792    0.0000 C   0  0  0  0  0  0  0  0  0  0  0  0
    0.7292   -3.0667    0.0000 C   0  0  0  0  0  0  0  0  0  0  0  0
  2  4  1  0
  3  5  1  0
  4  1  2  0
  5  2  1  0
  6  1  1  0
  7  9  1  0
  8  3  1  0
  9  6  2  0
  7  2  2  0
M  END

> <chembl_id>
CHEMBL357101

> <chembl_pref_name>
None

$$$$

     RDKit          2D

  9  8  0  0  0  0  0  0  0  0999 V2000
   30.2113   -7.8046    0.0000 Cl  0  0  0  0  0  0  0  0  0  0  0  0
   28.8809   -5.6749    0.0000 C   0  0  0  0  0  0  0  0  0  0  0  0
   28.8798   -6.4944    0.0000 C   0  0  0  0  0  0  0  0  0  0  0  0
   29.5878   -6.9034    0.0000 N   0  0  0  0  0  0  0  0  0  0  0  0
   30.2975   -6.4940    0.0000 C   0  0  0  0  0  0  0  0  0  0  0  0
   30.2947   -5.6713    0.0000 C   0  0  0  0  0  0  0  0  0  0  0  0
   29.5860   -5.2660    0.0000 C   0  0  0  0  0  0  0  0  0  0  0  0
   31.0058   -6.9014    0.0000 C   0  0  0  0  0  0  0  0  0  0  0  0
   31.0008   -5.2600    0.0000 C   0  0  0  0  0  0  0  0  0  0  0  0
  2  3  2  0
  3  4  1  0
  4  5  2  0
  5  6  1  0
  6  7  2  0
  7  2  1  0
  5  8  1  0
  6  9  1  0
M  END

> <chembl_id>
CHEMBL3229439

> <chembl_pref_name>
None

$$$$

     RDKit          2D

 11 11  0  0  0  0  0  0  0  0999 V2000
    3.7788    2.2875    0.0000 N   0  0  0  0  0  0  0  0  0  0  0  0
    4.4932    0.2250    0.0000 C   0  0  0  0  0  0  0  0  0  0  0  0
    4.4932   -1.4250    0.0000 C   0  0  0  0  0  0  0  0  0  0  0  0
    5.2077   -0.1875    0.0000 C   0  0  0  0  0  0  0  0  0  0  0  0
    3.7788   -0.1875    0.0000 C   0  0  0  0  0  0  0  0  0  0  0  0
    4.4932    1.0500    0.0000 C   0  0  0  0  0  0  0  0  0  0  0  0
    5.2077   -1.0125    0.0000 C   0  0  0  0  0  0  0  0  0  0  0  0
    3.7788   -1.0125    0.0000 C   0  0  0  0  0  0  0  0  0  0  0  0
    3.7788    1.4625    0.0000 C   0  0  0  0  0  0  0  0  0  0  0  0
    4.4932   -2.2500    0.0000 C   0  0  0  0  0  0  0  0  0  0  0  0
    3.0643    1.0500    0.0000 C   0  0  0  0  0  0  0  0  0  0  0  0
  1  9  1  0
  2  4  2  0
  2  5  1  0
  2  6  1  0
  3  7  2  0
  3  8  1  0
  3 10  1  0
  4  7  1  0
  5  8  2  0
  6  9  1  0
  9 11  1  0
M  END

> <chembl_id>
CHEMBL166183

> <chembl_pref_name>
None

$$$$

     RDKit          2D

 10 10  0  0  0  0  0  0  0  0999 V2000
    5.7042   -5.2167    0.0000 C   0  0  0  0  0  0  0  0  0  0  0  0
    5.7042   -6.0417    0.0000 C   0  0  0  0  0  0  0  0  0  0  0  0
    6.4167   -4.8042    0.0000 C   0  0  0  0  0  0  0  0  0  0  0  0
    7.1375   -5.2167    0.0000 C   0  0  0  0  0  0  0  0  0  0  0  0
    6.4167   -6.4542    0.0000 O   0  0  0  0  0  0  0  0  0  0  0  0
    7.1375   -6.0417    0.0000 C   0  0  0  0  0  0  0  0  0  0  0  0
    6.4167   -3.9792    0.0000 O   0  0  0  0  0  0  0  0  0  0  0  0
    4.9917   -4.8042    0.0000 O   0  0  0  0  0  0  0  0  0  0  0  0
    4.9917   -6.4542    0.0000 C   0  0  0  0  0  0  0  0  0  0  0  0
    7.8542   -6.4542    0.0000 C   0  0  0  0  0  0  0  0  0  0  0  0
  2  1  2  0
  3  1  1  0
  4  3  1  0
  5  2  1  0
  6  4  2  0
  7  3  2  0
  8  1  1  0
  9  2  1  0
 10  6  1  0
  6  5  1  0
M  END

> <chembl_id>
CHEMBL122155

> <chembl_pref_name>
None

$$$$

     RDKit          2D

 10 10  0  0  0  0  0  0  0  0999 V2000
    6.0060   -2.7350    0.0000 C   0  0  0  0  0  0  0  0  0  0  0  0
    6.7195   -2.3195    0.0000 N   0  0  0  0  0  0  0  0  0  0  0  0
    7.4316   -1.9017    0.0000 N   0  0  0  0  0  0  0  0  0  0  0  0
    8.1448   -1.4847    0.0000 N   0  0  0  0  0  0  0  0  0  0  0  0
    5.2930   -2.3232    0.0000 C   0  0  0  0  0  0  0  0  0  0  0  0
    4.5799   -2.7380    0.0000 C   0  0  0  0  0  0  0  0  0  0  0  0
    4.5826   -3.5646    0.0000 C   0  0  0  0  0  0  0  0  0  0  0  0
    5.3043   -3.9746    0.0000 C   0  0  0  0  0  0  0  0  0  0  0  0
    6.0145   -3.5574    0.0000 C   0  0  0  0  0  0  0  0  0  0  0  0
    3.8628   -3.9852    0.0000 N   0  0  0  0  0  0  0  0  0  0  0  0
  1  2  1  0
  2  3  2  0
  3  4  2  0
  1  5  2  0
  5  6  1  0
  6  7  2  0
  7  8  1  0
  8  9  2  0
  9  1  1  0
  7 10  1  0
M  CHG  2   3   1   4  -1
M  END

> <chembl_id>
CHEMBL3236180

> <chembl_pref_name>
None

$$$$

     RDKit          2D

  9  9  0  0  0  0  0  0  0  0999 V2000
   -0.8715   -1.1428    0.0000 C   0  0  0  0  0  0  0  0  0  0  0  0
   -0.8715   -0.3178    0.0000 C   0  0  0  0  0  0  0  0  0  0  0  0
   -0.1570    0.0947    0.0000 C   0  0  0  0  0  0  0  0  0  0  0  0
    0.5574   -0.3178    0.0000 C   0  0  0  0  0  0  0  0  0  0  0  0
    0.5574   -1.1428    0.0000 C   0  0  0  0  0  0  0  0  0  0  0  0
   -0.1570   -1.5553    0.0000 C   0  0  0  0  0  0  0  0  0  0  0  0
    0.5574    1.3322    0.0000 C   0  0  0  0  0  0  0  0  0  0  0  0
   -0.1570    0.9197    0.0000 N   0  0  0  0  0  0  0  0  0  0  0  0
    0.5574    2.1572    0.0000 O   0  0  0  0  0  0  0  0  0  0  0  0
  1  2  2  0
  1  6  1  0
  2  3  1  0
  3  4  2  0
  3  8  1  0
  4  5  1  0
  5  6  2  0
  7  8  1  0
  7  9  2  0
M  END

> <chembl_id>
CHEMBL1232659

> <chembl_pref_name>
FORMANILIDE

$$$$

     RDKit          2D

 10 11  0  0  0  0  0  0  0  0999 V2000
    0.4840   -1.4902    0.0000 O   0  0  0  0  0  0  0  0  0  0  0  0
    0.4840   -0.1554    0.0000 O   0  0  0  0  0  0  0  0  0  0  0  0
    3.4120   -1.6478    0.0000 O   0  0  0  0  0  0  0  0  0  0  0  0
    1.2686   -1.2353    0.0000 C   0  0  0  0  0  0  0  0  0  0  0  0
    1.2686   -0.4103    0.0000 C   0  0  0  0  0  0  0  0  0  0  0  0
    1.9831   -1.6478    0.0000 C   0  0  0  0  0  0  0  0  0  0  0  0
    1.9831    0.0022    0.0000 C   0  0  0  0  0  0  0  0  0  0  0  0
    2.6976   -1.2353    0.0000 C   0  0  0  0  0  0  0  0  0  0  0  0
   -0.0009   -0.8228    0.0000 C   0  0  0  0  0  0  0  0  0  0  0  0
    2.6976   -0.4103    0.0000 C   0  0  0  0  0  0  0  0  0  0  0  0
  1  4  1  0
  1  9  1  0
  2  5  1  0
  2  9  1  0
  3  8  1  0
  4  5  2  0
  4  6  1  0
  5  7  1  0
  6  8  2  0
  7 10  2  0
  8 10  1  0
M  END

> <chembl_id>
CHEMBL1517998

> <chembl_pref_name>
None

$$$$

     RDKit          2D

 11 12  0  0  0  0  0  0  0  0999 V2000
    2.0322  -26.4087    0.0000 C   0  0  0  0  0  0  0  0  0  0  0  0
    2.8283  -26.6107    0.0000 C   0  0  0  0  0  0  0  0  0  0  0  0
    2.6051  -25.8202    0.0000 C   0  0  0  0  0  0  0  0  0  0  0  0
    1.5917  -27.3262    0.0000 N   0  0  0  0  0  0  0  0  0  0  0  0
    2.4176  -27.3262    0.0000 C   0  0  0  0  0  0  0  0  0  0  0  0
    3.6541  -26.6107    0.0000 C   0  0  0  0  0  0  0  0  0  0  0  0
    4.0694  -25.8951    0.0000 C   0  0  0  0  0  0  0  0  0  0  0  0
    4.8953  -25.8951    0.0000 C   0  0  0  0  0  0  0  0  0  0  0  0
    5.3059  -26.6107    0.0000 C   0  0  0  0  0  0  0  0  0  0  0  0
    4.8953  -27.3262    0.0000 C   0  0  0  0  0  0  0  0  0  0  0  0
    4.0694  -27.3262    0.0000 C   0  0  0  0  0  0  0  0  0  0  0  0
  1  3  1  0
  2  1  1  0
  3  2  1  0
  5  2  1  0
  4  5  1  0
  6  7  1  0
  7  8  2  0
  8  9  1  0
  9 10  2  0
 10 11  1  0
  6 11  2  0
  2  6  1  0
M  END

> <chembl_id>
CHEMBL61251

> <chembl_pref_name>
None

$$$$

     RDKit          2D

  8  8  0  0  0  0  0  0  0  0999 V2000
    4.5417   -1.0792    0.0000 C   0  0  0  0  0  0  0  0  0  0  0  0
    4.5417   -0.2542    0.0000 S   0  0  0  0  0  0  0  0  0  0  0  0
    4.5417   -2.7375    0.0000 C   0  0  0  0  0  0  0  0  0  0  0  0
    4.5417   -3.5625    0.0000 Cl  0  0  0  0  0  0  0  0  0  0  0  0
    5.2625   -1.4917    0.0000 C   0  0  0  0  0  0  0  0  0  0  0  0
    3.8292   -1.5000    0.0000 C   0  0  0  0  0  0  0  0  0  0  0  0
    3.8292   -2.3250    0.0000 C   0  0  0  0  0  0  0  0  0  0  0  0
    5.2625   -2.3250    0.0000 C   0  0  0  0  0  0  0  0  0  0  0  0
  2  1  1  0
  3  7  1  0
  4  3  1  0
  5  1  2  0
  6  1  1  0
  7  6  2  0
  8  5  1  0
  3  8  2  0
M  END

> <chembl_id>
CHEMBL332901

> <chembl_pref_name>
None

$$$$

     RDKit          2D

 10 11  0  0  0  0  0  0  0  0999 V2000
   -3.6257  -17.2920    0.0000 C   0  0  0  0  0  0  0  0  0  0  0  0
   -2.9625  -16.8012    0.0000 N   0  0  0  0  0  0  0  0  0  0  0  0
   -3.2225  -16.0182    0.0000 C   0  0  0  0  0  0  0  0  0  0  0  0
   -4.0501  -16.0251    0.0000 C   0  0  0  0  0  0  0  0  0  0  0  0
   -4.2951  -16.8119    0.0000 N   0  0  0  0  0  0  0  0  0  0  0  0
   -3.6218  -18.1191    0.0000 C   0  0  0  0  0  0  0  0  0  0  0  0
   -4.2855  -18.6090    0.0000 C   0  0  0  0  0  0  0  0  0  0  0  0
   -4.0247  -19.3917    0.0000 C   0  0  0  0  0  0  0  0  0  0  0  0
   -3.1997  -19.3855    0.0000 C   0  0  0  0  0  0  0  0  0  0  0  0
   -2.9508  -18.5990    0.0000 O   0  0  0  0  0  0  0  0  0  0  0  0
  5  1  1  0
  6  7  2  0
  1  2  2  0
  2  3  1  0
  3  4  1  0
  4  5  1  0
  7  8  1  0
  8  9  2  0
  9 10  1  0
 10  6  1  0
  1  6  1  0
M  END

> <chembl_id>
CHEMBL14410

> <chembl_pref_name>
None

$$$$

     RDKit          2D

  9  9  0  0  0  0  0  0  0  0999 V2000
   25.3252   -8.2743    0.0000 N   0  0  0  0  0  0  0  0  0  0  0  0
   26.0339   -7.8627    0.0000 C   0  0  0  0  0  0  0  0  0  0  0  0
   26.7530   -8.2854    0.0000 N   0  0  0  0  0  0  0  0  0  0  0  0
   25.3243   -9.1014    0.0000 C   0  0  0  0  0  0  0  0  0  0  0  0
   24.6082   -7.8652    0.0000 C   0  0  0  0  0  0  0  0  0  0  0  0
   24.6088   -7.0380    0.0000 C   0  0  0  0  0  0  0  0  0  0  0  0
   25.3216   -6.6226    0.0000 C   0  0  0  0  0  0  0  0  0  0  0  0
   26.0330   -7.0344    0.0000 C   0  0  0  0  0  0  0  0  0  0  0  0
   25.3204   -5.7976    0.0000 C   0  0  0  0  0  0  0  0  0  0  0  0
  1  2  1  0
  2  3  2  0
  1  4  1  0
  1  5  1  0
  5  6  2  0
  6  7  1  0
  7  8  2  0
  8  2  1  0
  7  9  1  0
M  END

> <chembl_id>
CHEMBL1485767

> <chembl_pref_name>
None

$$$$

     RDKit          2D

  9  8  0  0  0  0  0  0  0  0999 V2000
    2.2393    0.5156    0.0000 N   0  0  0  0  0  0  0  0  0  0  0  0
    2.9538    0.1031    0.0000 C   0  0  0  0  0  0  0  0  0  0  0  0
    3.6682    0.5156    0.0000 C   0  0  0  0  0  0  0  0  0  0  0  0
    2.9538   -0.7219    0.0000 C   0  0  0  0  0  0  0  0  0  0  0  0
    4.3827    0.1031    0.0000 C   0  0  0  0  0  0  0  0  0  0  0  0
    3.6682   -1.1344    0.0000 C   0  0  0  0  0  0  0  0  0  0  0  0
    4.3827   -0.7219    0.0000 C   0  0  0  0  0  0  0  0  0  0  0  0
    3.6682    1.3406    0.0000 C   0  0  0  0  0  0  0  0  0  0  0  0
    0.0000    0.0000    0.0000 Cl  0  0  0  0  0  0  0  0  0  0  0  0
  1  2  1  0
  2  3  1  0
  2  4  2  0
  3  5  2  0
  3  8  1  0
  4  6  1  0
  5  7  1  0
  6  7  2  0
M  END

> <chembl_id>
CHEMBL1579403

> <chembl_pref_name>
None

$$$$

     RDKit          2D

  7  7  0  0  0  0  0  0  0  0999 V2000
    1.1385   -3.3418    0.0000 C   0  0  0  0  0  0  0  0  0  0  0  0
    1.6281   -2.2462    0.0000 C   0  0  0  0  0  0  0  0  0  0  0  0
    0.7500   -1.0323    0.0000 C   0  0  0  0  0  0  0  0  0  0  0  0
    1.2135    0.3943    0.0000 N   0  0  0  0  0  0  0  0  0  0  0  0
    0.0000    1.2760    0.0000 C   0  0  0  0  0  0  0  0  0  0  0  0
   -1.2135    0.3943    0.0000 C   0  0  0  0  0  0  0  0  0  0  0  0
   -0.7500   -1.0323    0.0000 N   0  0  0  0  0  0  0  0  0  0  0  0
  1  2  1  0
  2  3  1  0
  3  4  2  0
  4  5  1  0
  5  6  2  0
  6  7  1  0
  7  3  1  0
M  END

> <chembl_id>
CHEMBL303797

> <chembl_pref_name>
None

$$$$

     RDKit          2D

  6  6  0  0  0  0  0  0  0  0999 V2000
    4.0957   -3.5292    0.0000 C   0  0  0  0  0  0  0  0  0  0  0  0
    4.9207   -3.5292    0.0000 C   0  0  0  0  0  0  0  0  0  0  0  0
    5.1776   -2.7451    0.0000 N   0  0  0  0  0  0  0  0  0  0  0  0
    4.5082   -2.2584    0.0000 C   0  0  0  0  0  0  0  0  0  0  0  0
    3.8432   -2.7451    0.0000 N   0  0  0  0  0  0  0  0  0  0  0  0
    4.5070   -1.4334    0.0000 S   0  0  0  0  0  0  0  0  0  0  0  0
  1  2  2  0
  2  3  1  0
  3  4  2  0
  4  5  1  0
  5  1  1  0
  4  6  1  0
M  END

> <chembl_id>
CHEMBL3260774

> <chembl_pref_name>
None

$$$$

     RDKit          2D

 10 10  0  0  0  0  0  0  0  0999 V2000
    4.1167   -1.8292    0.0000 C   0  0  0  0  0  0  0  0  0  0  0  0
    4.9417   -1.8292    0.0000 N   0  0  0  0  0  0  0  0  0  0  0  0
    3.6292   -2.5000    0.0000 C   0  0  0  0  0  0  0  0  0  0  0  0
    4.5292   -0.5625    0.0000 N   0  0  0  0  0  0  0  0  0  0  0  0
    5.2000   -1.0417    0.0000 C   0  0  0  0  0  0  0  0  0  0  0  0
    3.8667   -1.0417    0.0000 C   0  0  0  0  0  0  0  0  0  0  0  0
    2.8125   -2.4125    0.0000 C   0  0  0  0  0  0  0  0  0  0  0  0
    2.3167   -3.0792    0.0000 N   0  0  0  0  0  0  0  0  0  0  0  0
    3.9667   -3.2542    0.0000 C   0  0  0  0  0  0  0  0  0  0  0  0
    2.4792   -1.6542    0.0000 C   0  0  0  0  0  0  0  0  0  0  0  0
  2  1  1  0
  3  1  1  0
  4  6  1  0
  5  2  2  0
  6  1  2  0
  7  3  1  0
  8  7  1  0
  9  3  1  0
 10  7  1  0
  4  5  1  0
M  END

> <chembl_id>
CHEMBL337756

> <chembl_pref_name>
None

$$$$

     RDKit          2D

 10 10  0  0  0  0  0  0  0  0999 V2000
    3.2750    0.2583    0.0000 C   0  0  0  0  0  0  0  0  0  0  0  0
    2.5542   -0.1667    0.0000 C   0  0  0  0  0  0  0  0  0  0  0  0
    3.2625    1.0875    0.0000 O   0  0  0  0  0  0  0  0  0  0  0  0
    1.8417    0.2458    0.0000 C   0  0  0  0  0  0  0  0  0  0  0  0
    2.5542   -0.9917    0.0000 C   0  0  0  0  0  0  0  0  0  0  0  0
    4.0000   -0.1500    0.0000 N   0  0  0  0  0  0  0  0  0  0  0  0
    1.1250   -0.9917    0.0000 C   0  0  0  0  0  0  0  0  0  0  0  0
    1.8417   -1.4042    0.0000 C   0  0  0  0  0  0  0  0  0  0  0  0
    1.1250   -0.1667    0.0000 C   0  0  0  0  0  0  0  0  0  0  0  0
    0.4042   -1.4042    0.0000 F   0  0  0  0  0  0  0  0  0  0  0  0
  2  1  1  0
  3  1  2  0
  4  2  1  0
  5  2  2  0
  6  1  1  0
  7  8  2  0
  8  5  1  0
  9  4  2  0
 10  7  1  0
  9  7  1  0
M  END

> <chembl_id>
CHEMBL125596

> <chembl_pref_name>
None

$$$$

     RDKit          2D

  8  8  0  0  0  0  0  0  0  0999 V2000
    0.0314   -1.2891    0.0000 N   0  0  0  0  0  0  0  0  0  0  0  0
   -0.6831   -0.8766    0.0000 C   0  0  0  0  0  0  0  0  0  0  0  0
   -0.6831   -0.0516    0.0000 C   0  0  0  0  0  0  0  0  0  0  0  0
    0.0314    0.3609    0.0000 C   0  0  0  0  0  0  0  0  0  0  0  0
    0.7459   -0.0516    0.0000 C   0  0  0  0  0  0  0  0  0  0  0  0
    0.7459   -0.8766    0.0000 C   0  0  0  0  0  0  0  0  0  0  0  0
    0.0314    1.1859    0.0000 C   0  0  0  0  0  0  0  0  0  0  0  0
   -0.6831    1.5984    0.0000 O   0  0  0  0  0  0  0  0  0  0  0  0
  2  1  1  0
  6  1  2  0
  2  3  2  0
  3  4  1  0
  4  5  2  0
  4  7  1  0
  5  6  1  0
  7  8  1  0
M  END

> <chembl_id>
CHEMBL1235528

> <chembl_pref_name>
PYRIDINE 4-METHANOL

$$$$

     RDKit          2D

  9  9  0  0  0  0  0  0  0  0999 V2000
    8.5705   -3.5617    0.0000 N   0  0  0  0  0  0  0  0  0  0  0  0
    8.8160   -2.7741    0.0000 C   0  0  0  0  0  0  0  0  0  0  0  0
    7.4804   -2.7741    0.0000 N   0  0  0  0  0  0  0  0  0  0  0  0
    7.7373   -3.5617    0.0000 C   0  0  0  0  0  0  0  0  0  0  0  0
    8.1596   -2.2947    0.0000 O   0  0  0  0  0  0  0  0  0  0  0  0
    9.6036   -2.5286    0.0000 C   0  0  0  0  0  0  0  0  0  0  0  0
    7.2578   -4.2295    0.0000 C   0  0  0  0  0  0  0  0  0  0  0  0
   10.3181   -2.9411    0.0000 N   0  0  0  0  0  0  0  0  0  0  0  0
   10.3181   -3.7661    0.0000 O   0  0  0  0  0  0  0  0  0  0  0  0
  2  1  2  0
  3  4  2  0
  4  1  1  0
  5  2  1  0
  6  2  1  0
  7  4  1  0
  5  3  1  0
  6  8  2  0
  8  9  1  0
M  END

> <chembl_id>
CHEMBL2079593

> <chembl_pref_name>
None

$$$$

     RDKit          2D

 11 12  0  0  0  0  0  0  0  0999 V2000
    9.9500   -0.6292    0.0000 C   0  0  0  0  0  0  0  0  0  0  0  0
   11.3792   -0.6375    0.0000 N   0  0  0  0  0  0  0  0  0  0  0  0
    9.9542    0.1958    0.0000 C   0  0  0  0  0  0  0  0  0  0  0  0
    9.2375   -1.0500    0.0000 C   0  0  0  0  0  0  0  0  0  0  0  0
    9.2375    0.6083    0.0000 C   0  0  0  0  0  0  0  0  0  0  0  0
    8.5250   -0.6375    0.0000 C   0  0  0  0  0  0  0  0  0  0  0  0
    7.8042   -1.0500    0.0000 N   0  0  0  0  0  0  0  0  0  0  0  0
    8.5250    0.1875    0.0000 C   0  0  0  0  0  0  0  0  0  0  0  0
   10.6667   -1.0500    0.0000 C   0  0  0  0  0  0  0  0  0  0  0  0
   11.3792    0.1958    0.0000 C   0  0  0  0  0  0  0  0  0  0  0  0
   10.6667    0.6083    0.0000 C   0  0  0  0  0  0  0  0  0  0  0  0
  2  9  1  0
  3  1  1  0
  4  1  2  0
  5  3  2  0
  6  4  1  0
  7  6  1  0
  8  6  2  0
  9  1  1  0
 10  2  1  0
 11  3  1  0
 10 11  1  0
  8  5  1  0
M  END

> <chembl_id>
CHEMBL28340

> <chembl_pref_name>
None

$$$$

     RDKit          2D

 11 12  0  0  1  0  0  0  0  0999 V2000
   -3.7596  -22.5656    0.0000 C   0  0  0  0  0  0  0  0  0  0  0  0
   -3.7608  -23.3894    0.0000 C   0  0  0  0  0  0  0  0  0  0  0  0
   -3.0492  -23.8004    0.0000 C   0  0  0  0  0  0  0  0  0  0  0  0
   -3.0510  -22.1548    0.0000 C   0  0  0  0  0  0  0  0  0  0  0  0
   -2.3387  -22.5621    0.0000 C   0  0  0  0  0  0  0  0  0  0  0  0
   -2.3339  -23.3894    0.0000 C   0  0  0  0  0  0  0  0  0  0  0  0
   -1.5455  -23.6404    0.0000 C   0  0  0  0  0  0  0  0  0  0  0  0
   -1.0631  -22.9682    0.0000 C   0  0  0  0  0  0  0  0  0  0  0  0
   -1.5534  -22.3018    0.0000 C   0  0  0  0  0  0  0  0  0  0  0  0
   -1.3042  -21.5192    0.0000 O   0  0  0  0  0  0  0  0  0  0  0  0
   -3.0501  -24.6217    0.0000 C   0  0  0  0  0  0  0  0  0  0  0  0
  2  3  1  0
  3  6  2  0
  1  2  2  0
  5  4  2  0
  6  7  1  0
  7  8  1  0
  9  8  1  0
  9  5  1  0
  4  1  1  0
  9 10  1  1
  5  6  1  0
  3 11  1  0
M  END

> <chembl_id>
CHEMBL380519

> <chembl_pref_name>
None

$$$$

     RDKit          2D

 10 10  0  0  0  0  0  0  0  0999 V2000
   10.8532  -15.0643    0.0000 C   0  0  0  0  0  0  0  0  0  0  0  0
   10.8520  -15.8839    0.0000 C   0  0  0  0  0  0  0  0  0  0  0  0
   11.5601  -16.2928    0.0000 C   0  0  0  0  0  0  0  0  0  0  0  0
   12.2698  -15.8834    0.0000 C   0  0  0  0  0  0  0  0  0  0  0  0
   12.2669  -15.0607    0.0000 C   0  0  0  0  0  0  0  0  0  0  0  0
   11.5583  -14.6555    0.0000 C   0  0  0  0  0  0  0  0  0  0  0  0
   10.1440  -16.2919    0.0000 O   0  0  0  0  0  0  0  0  0  0  0  0
   11.5559  -13.8383    0.0000 O   0  0  0  0  0  0  0  0  0  0  0  0
   12.9781  -16.2909    0.0000 C   0  0  0  0  0  0  0  0  0  0  0  0
   12.9794  -17.1081    0.0000 O   0  0  0  0  0  0  0  0  0  0  0  0
  1  2  2  0
  2  3  1  0
  3  4  2  0
  4  5  1  0
  5  6  2  0
  6  1  1  0
  2  7  1  0
  6  8  1  0
  4  9  1  0
  9 10  1  0
M  END

> <chembl_id>
CHEMBL4076614

> <chembl_pref_name>
None

$$$$

     RDKit          2D

  9  9  0  0  0  0  0  0  0  0999 V2000
    5.0542   -4.2500    0.0000 C   0  0  0  0  0  0  0  0  0  0  0  0
    4.3417   -4.6625    0.0000 N   0  0  0  0  0  0  0  0  0  0  0  0
    6.4875   -3.4167    0.0000 C   0  0  0  0  0  0  0  0  0  0  0  0
    7.9125   -3.4042    0.0000 N   0  0  0  0  0  0  0  0  0  0  0  0
    5.7667   -4.6625    0.0000 C   0  0  0  0  0  0  0  0  0  0  0  0
    5.0542   -3.4167    0.0000 C   0  0  0  0  0  0  0  0  0  0  0  0
    6.4875   -4.2500    0.0000 C   0  0  0  0  0  0  0  0  0  0  0  0
    5.7667   -3.0042    0.0000 C   0  0  0  0  0  0  0  0  0  0  0  0
    7.1917   -2.9917    0.0000 C   0  0  0  0  0  0  0  0  0  0  0  0
  2  1  1  0
  3  8  2  0
  4  9  1  0
  5  1  1  0
  6  1  2  0
  7  5  2  0
  8  6  1  0
  9  3  1  0
  7  3  1  0
M  END

> <chembl_id>
CHEMBL148476

> <chembl_pref_name>
None

$$$$

     RDKit          2D

 10 10  0  0  0  0  0  0  0  0999 V2000
    5.4417   -7.2417    0.0000 C   0  0  0  0  0  0  0  0  0  0  0  0
    4.7292   -6.8292    0.0000 N   0  0  0  0  0  0  0  0  0  0  0  0
    5.4417   -8.0667    0.0000 C   0  0  0  0  0  0  0  0  0  0  0  0
    6.1625   -6.8292    0.0000 N   0  0  0  0  0  0  0  0  0  0  0  0
    4.7292   -8.4792    0.0000 N   0  0  0  0  0  0  0  0  0  0  0  0
    4.0250   -7.2417    0.0000 C   0  0  0  0  0  0  0  0  0  0  0  0
    4.0250   -8.0667    0.0000 C   0  0  0  0  0  0  0  0  0  0  0  0
    6.8750   -7.2500    0.0000 C   0  0  0  0  0  0  0  0  0  0  0  0
    6.1667   -6.0042    0.0000 C   0  0  0  0  0  0  0  0  0  0  0  0
    6.1625   -8.4792    0.0000 C   0  0  0  0  0  0  0  0  0  0  0  0
  2  1  2  0
  3  1  1  0
  4  1  1  0
  5  3  2  0
  6  2  1  0
  7  5  1  0
  8  4  1  0
  9  4  1  0
 10  3  1  0
  6  7  2  0
M  END

> <chembl_id>
CHEMBL94831

> <chembl_pref_name>
None

$$$$

     RDKit          2D

 10 10  0  0  0  0  0  0  0  0999 V2000
    5.6533   -0.0583    0.0000 C   0  0  0  0  0  0  0  0  0  0  0  0
    5.6521   -0.8851    0.0000 C   0  0  0  0  0  0  0  0  0  0  0  0
    6.3666   -1.2977    0.0000 C   0  0  0  0  0  0  0  0  0  0  0  0
    7.0825   -0.8846    0.0000 C   0  0  0  0  0  0  0  0  0  0  0  0
    7.0796   -0.0547    0.0000 C   0  0  0  0  0  0  0  0  0  0  0  0
    6.3648    0.3543    0.0000 C   0  0  0  0  0  0  0  0  0  0  0  0
    6.3623    1.1788    0.0000 N   0  0  0  0  0  0  0  0  0  0  0  0
    7.0750    1.5931    0.0000 O   0  0  0  0  0  0  0  0  0  0  0  0
    5.6470    1.5888    0.0000 C   0  0  0  0  0  0  0  0  0  0  0  0
    5.6445    2.4133    0.0000 O   0  0  0  0  0  0  0  0  0  0  0  0
  2  3  1  0
  5  6  2  0
  6  1  1  0
  1  2  2  0
  6  7  1  0
  3  4  2  0
  7  8  1  0
  7  9  1  0
  4  5  1  0
  9 10  2  0
M  END

> <chembl_id>
CHEMBL232642

> <chembl_pref_name>
None

$$$$

     RDKit          2D

 10 10  0  0  0  0  0  0  0  0999 V2000
   -1.0983   -1.7738    0.0000 N   0  0  0  0  0  0  0  0  0  0  0  0
   -1.0983   -0.9488    0.0000 C   0  0  0  0  0  0  0  0  0  0  0  0
   -0.3839   -0.5363    0.0000 C   0  0  0  0  0  0  0  0  0  0  0  0
   -0.3839    0.2887    0.0000 C   0  0  0  0  0  0  0  0  0  0  0  0
    0.3306   -0.9488    0.0000 C   0  0  0  0  0  0  0  0  0  0  0  0
    0.3306    0.7012    0.0000 C   0  0  0  0  0  0  0  0  0  0  0  0
    1.0451   -0.5363    0.0000 C   0  0  0  0  0  0  0  0  0  0  0  0
    1.0451    0.2887    0.0000 C   0  0  0  0  0  0  0  0  0  0  0  0
    0.3306    1.5262    0.0000 C   0  0  0  0  0  0  0  0  0  0  0  0
   -0.3839    1.9387    0.0000 N   0  0  0  0  0  0  0  0  0  0  0  0
  2  1  1  0
  2  3  1  0
  4  3  2  0
  5  3  1  0
  4  6  1  0
  5  7  2  0
  6  8  2  0
  9  6  1  0
  7  8  1  0
  9 10  1  0
M  END

> <chembl_id>
CHEMBL384146

> <chembl_pref_name>
None

$$$$

     RDKit          2D

 10 10  0  0  0  0  0  0  0  0999 V2000
    1.7081   -9.1249    0.0000 N   0  0  0  0  0  0  0  0  0  0  0  0
    1.7081   -9.9499    0.0000 C   0  0  0  0  0  0  0  0  0  0  0  0
    2.4207  -10.3562    0.0000 N   0  0  0  0  0  0  0  0  0  0  0  0
    3.1333   -9.9499    0.0000 C   0  0  0  0  0  0  0  0  0  0  0  0
    3.1333   -9.1249    0.0000 C   0  0  0  0  0  0  0  0  0  0  0  0
    2.4207   -8.7062    0.0000 C   0  0  0  0  0  0  0  0  0  0  0  0
    3.8471   -8.7115    0.0000 C   0  0  0  0  0  0  0  0  0  0  0  0
    4.5609   -9.1281    0.0000 O   0  0  0  0  0  0  0  0  0  0  0  0
    3.8495   -7.8865    0.0000 O   0  0  0  0  0  0  0  0  0  0  0  0
    0.9983  -10.3624    0.0000 N   0  0  0  0  0  0  0  0  0  0  0  0
  1  2  2  0
  1  6  1  0
  2  3  1  0
  3  4  2  0
  4  5  1  0
  5  6  2  0
  7  8  1  0
  7  9  2  0
  5  7  1  0
  2 10  1  0
M  END

> <chembl_id>
CHEMBL3322885

> <chembl_pref_name>
None

$$$$

     RDKit          2D

 10 10  0  0  0  0  0  0  0  0999 V2000
   24.6092   -5.7946    0.0000 C   0  0  0  0  0  0  0  0  0  0  0  0
   24.6081   -6.6141    0.0000 C   0  0  0  0  0  0  0  0  0  0  0  0
   25.3161   -7.0231    0.0000 N   0  0  0  0  0  0  0  0  0  0  0  0
   26.0258   -6.6137    0.0000 C   0  0  0  0  0  0  0  0  0  0  0  0
   26.0230   -5.7910    0.0000 C   0  0  0  0  0  0  0  0  0  0  0  0
   25.3144   -5.3857    0.0000 C   0  0  0  0  0  0  0  0  0  0  0  0
   26.7342   -7.0211    0.0000 C   0  0  0  0  0  0  0  0  0  0  0  0
   26.7291   -5.3797    0.0000 C   0  0  0  0  0  0  0  0  0  0  0  0
   26.7365   -7.8384    0.0000 O   0  0  0  0  0  0  0  0  0  0  0  0
   27.4423   -6.6115    0.0000 O   0  0  0  0  0  0  0  0  0  0  0  0
  1  2  2  0
  2  3  1  0
  3  4  2  0
  4  5  1  0
  5  6  2  0
  6  1  1  0
  4  7  1  0
  5  8  1  0
  7  9  1  0
  7 10  2  0
M  END

> <chembl_id>
CHEMBL3229438

> <chembl_pref_name>
None

$$$$

     RDKit          2D

 10 10  0  0  0  0  0  0  0  0999 V2000
    2.6375   -0.9000    0.0000 C   0  0  0  0  0  0  0  0  0  0  0  0
    3.2500    0.5625    0.0000 C   0  0  0  0  0  0  0  0  0  0  0  0
    3.2125   -0.0292    0.0000 C   0  0  0  0  0  0  0  0  0  0  0  0
    2.6750   -0.3042    0.0000 C   0  0  0  0  0  0  0  0  0  0  0  0
    2.8792   -1.8417    0.0000 O   0  0  0  0  0  0  0  0  0  0  0  0
    3.1000   -1.2792    0.0000 C   0  0  0  0  0  0  0  0  0  0  0  0
    2.1292   -1.2250    0.0000 C   0  0  0  0  0  0  0  0  0  0  0  0
    2.2792   -1.8042    0.0000 C   0  0  0  0  0  0  0  0  0  0  0  0
    2.7500    0.8958    0.0000 O   0  0  0  0  0  0  0  0  0  0  0  0
    3.7792    0.8333    0.0000 O   0  0  0  0  0  0  0  0  0  0  0  0
  2  3  1  0
  3  4  2  0
  4  1  1  0
  5  6  1  0
  6  1  2  0
  7  1  1  0
  8  7  2  0
  9  2  2  0
 10  2  1  0
  8  5  1  0
M  END

> <chembl_id>
CHEMBL298683

> <chembl_pref_name>
None

$$$$

     RDKit          2D

  9  9  0  0  0  0  0  0  0  0999 V2000
    1.2990   -0.7500    0.0000 C   0  0  0  0  0  0  0  0  0  0  0  0
    0.0000    1.5000    0.0000 C   0  0  0  0  0  0  0  0  0  0  0  0
   -1.2990   -0.7500    0.0000 C   0  0  0  0  0  0  0  0  0  0  0  0
    2.3383   -1.3500    0.0000 N   0  0  0  0  0  0  0  0  0  0  0  0
   -2.3383   -1.3500    0.0000 N   0  0  0  0  0  0  0  0  0  0  0  0
   -1.2990    0.7500    0.0000 N   0  0  0  0  0  0  0  0  0  0  0  0
    0.0000    2.7000    0.0000 N   0  0  0  0  0  0  0  0  0  0  0  0
    1.2990    0.7500    0.0000 N   0  0  0  0  0  0  0  0  0  0  0  0
    0.0000   -1.5000    0.0000 N   0  0  0  0  0  0  0  0  0  0  0  0
  1  4  1  0
  1  8  2  0
  1  9  1  0
  2  6  2  0
  2  7  1  0
  2  8  1  0
  3  5  1  0
  3  6  1  0
  3  9  2  0
M  END

> <chembl_id>
CHEMBL1231106

> <chembl_pref_name>
None

$$$$

     RDKit          2D

 10 10  0  0  0  0  0  0  0  0999 V2000
   -2.7412    0.3956    0.0000 C   0  0  0  0  0  0  0  0  0  0  0  0
   -2.7424   -0.4312    0.0000 C   0  0  0  0  0  0  0  0  0  0  0  0
   -2.0280   -0.8438    0.0000 C   0  0  0  0  0  0  0  0  0  0  0  0
   -1.3121   -0.4307    0.0000 C   0  0  0  0  0  0  0  0  0  0  0  0
   -1.3150    0.3992    0.0000 C   0  0  0  0  0  0  0  0  0  0  0  0
   -2.0298    0.8080    0.0000 C   0  0  0  0  0  0  0  0  0  0  0  0
   -0.6025    0.8141    0.0000 N   0  0  0  0  0  0  0  0  0  0  0  0
   -0.5975   -0.8418    0.0000 N   0  0  0  0  0  0  0  0  0  0  0  0
   -3.4567   -0.8428    0.0000 N   0  0  0  0  0  0  0  0  0  0  0  0
   -3.4553    0.8076    0.0000 N   0  0  0  0  0  0  0  0  0  0  0  0
  2  3  1  0
  5  6  2  0
  6  1  1  0
  1  2  2  0
  5  7  1  0
  3  4  2  0
  4  8  1  0
  2  9  1  0
  4  5  1  0
  1 10  1  0
M  END

> <chembl_id>
CHEMBL374926

> <chembl_pref_name>
None

$$$$

     RDKit          2D

  9  9  0  0  0  0  0  0  0  0999 V2000
    2.3959   -2.4381    0.0000 O   0  0  0  0  0  0  0  0  0  0  0  0
    1.6815   -1.2006    0.0000 C   0  0  0  0  0  0  0  0  0  0  0  0
    1.6815   -2.0256    0.0000 C   0  0  0  0  0  0  0  0  0  0  0  0
    0.9670   -0.7881    0.0000 C   0  0  0  0  0  0  0  0  0  0  0  0
    0.9670   -2.4381    0.0000 C   0  0  0  0  0  0  0  0  0  0  0  0
    0.2525   -1.2006    0.0000 C   0  0  0  0  0  0  0  0  0  0  0  0
    0.2525   -2.0256    0.0000 C   0  0  0  0  0  0  0  0  0  0  0  0
    2.3959   -0.7881    0.0000 C   0  0  0  0  0  0  0  0  0  0  0  0
    0.9670    0.0369    0.0000 C   0  0  0  0  0  0  0  0  0  0  0  0
  1  3  1  0
  2  3  1  0
  2  4  2  0
  2  8  1  0
  3  5  2  0
  4  6  1  0
  4  9  1  0
  5  7  1  0
  6  7  2  0
M  END

> <chembl_id>
CHEMBL1490403

> <chembl_pref_name>
None

$$$$

     RDKit          2D

 10 10  0  0  0  0  0  0  0  0999 V2000
    3.7927   -0.5431    0.0000 N   0  0  0  0  0  0  0  0  0  0  0  0
    4.6177   -0.5431    0.0000 N   0  0  0  0  0  0  0  0  0  0  0  0
    4.8726    0.2415    0.0000 N   0  0  0  0  0  0  0  0  0  0  0  0
    4.2052    0.7264    0.0000 C   0  0  0  0  0  0  0  0  0  0  0  0
    3.5377    0.2415    0.0000 N   0  0  0  0  0  0  0  0  0  0  0  0
    4.2052    1.5514    0.0000 C   0  0  0  0  0  0  0  0  0  0  0  0
    5.0302    1.5514    0.0000 C   0  0  0  0  0  0  0  0  0  0  0  0
    4.2052    2.3764    0.0000 C   0  0  0  0  0  0  0  0  0  0  0  0
    3.4907    2.7889    0.0000 N   0  0  0  0  0  0  0  0  0  0  0  0
    3.3802    1.5514    0.0000 C   0  0  0  0  0  0  0  0  0  0  0  0
  4  5  1  0
  5  1  1  0
  4  6  1  0
  6  7  1  0
  1  2  2  0
  6  8  1  0
  2  3  1  0
  8  9  1  0
  3  4  2  0
  6 10  1  0
M  END

> <chembl_id>
CHEMBL211133

> <chembl_pref_name>
None

$$$$

     RDKit          2D

 11 11  0  0  0  0  0  0  0  0999 V2000
    2.7153   -6.3034    0.0000 C   0  0  0  0  0  0  0  0  0  0  0  0
    2.7153   -7.1284    0.0000 C   0  0  0  0  0  0  0  0  0  0  0  0
    2.0008   -7.5409    0.0000 C   0  0  0  0  0  0  0  0  0  0  0  0
    1.2863   -7.1284    0.0000 C   0  0  0  0  0  0  0  0  0  0  0  0
    2.0008   -8.3659    0.0000 C   0  0  0  0  0  0  0  0  0  0  0  0
    1.2863   -8.7784    0.0000 N   0  0  0  0  0  0  0  0  0  0  0  0
    1.2863   -9.6034    0.0000 C   0  0  0  0  0  0  0  0  0  0  0  0
    0.5718   -8.3659    0.0000 O   0  0  0  0  0  0  0  0  0  0  0  0
    2.0008   -5.8909    0.0000 C   0  0  0  0  0  0  0  0  0  0  0  0
    1.2863   -6.3034    0.0000 C   0  0  0  0  0  0  0  0  0  0  0  0
    2.0008   -5.0659    0.0000 C   0  0  0  0  0  0  0  0  0  0  0  0
  3  5  1  0
  9  1  1  0
  5  6  2  0
  2  3  1  0
  6  7  1  0
  6  8  1  0
  9 10  2  0
  3  4  2  0
  4 10  1  0
  1  2  2  0
  9 11  1  0
M  CHG  2   6   1   8  -1
M  END

> <chembl_id>
CHEMBL541974

> <chembl_pref_name>
None

$$$$

     RDKit          2D

  9  9  0  0  0  0  0  0  0  0999 V2000
    1.4289   -0.8250    0.0000 Cl  0  0  0  0  0  0  0  0  0  0  0  0
    0.7145    0.4125    0.0000 N   0  0  0  0  0  0  0  0  0  0  0  0
    0.0000   -0.8250    0.0000 N   0  0  0  0  0  0  0  0  0  0  0  0
   -0.7145    0.4125    0.0000 N   0  0  0  0  0  0  0  0  0  0  0  0
    0.0000    1.6500    0.0000 N   0  0  0  0  0  0  0  0  0  0  0  0
   -1.4289   -0.8250    0.0000 N   0  0  0  0  0  0  0  0  0  0  0  0
    0.7145   -0.4125    0.0000 C   0  0  0  0  0  0  0  0  0  0  0  0
    0.0000    0.8250    0.0000 C   0  0  0  0  0  0  0  0  0  0  0  0
   -0.7145   -0.4125    0.0000 C   0  0  0  0  0  0  0  0  0  0  0  0
  1  7  1  0
  2  7  2  0
  2  8  1  0
  3  7  1  0
  3  9  2  0
  4  8  2  0
  4  9  1  0
  5  8  1  0
  6  9  1  0
M  END

> <chembl_id>
CHEMBL1872965

> <chembl_pref_name>
None

$$$$

     RDKit          2D

 10 10  0  0  0  0  0  0  0  0999 V2000
   12.3837  -11.9457    0.0000 C   0  0  0  0  0  0  0  0  0  0  0  0
   12.3870  -12.7713    0.0000 C   0  0  0  0  0  0  0  0  0  0  0  0
   13.0997  -13.1788    0.0000 O   0  0  0  0  0  0  0  0  0  0  0  0
   13.8136  -12.7654    0.0000 C   0  0  0  0  0  0  0  0  0  0  0  0
   13.8102  -11.9398    0.0000 C   0  0  0  0  0  0  0  0  0  0  0  0
   13.0929  -11.5277    0.0000 C   0  0  0  0  0  0  0  0  0  0  0  0
   14.5227  -13.1722    0.0000 O   0  0  0  0  0  0  0  0  0  0  0  0
   11.6807  -13.1829    0.0000 C   0  0  0  0  0  0  0  0  0  0  0  0
   13.0885  -10.7102    0.0000 O   0  0  0  0  0  0  0  0  0  0  0  0
   13.7942  -10.2975    0.0000 C   0  0  0  0  0  0  0  0  0  0  0  0
  1  2  2  0
  1  6  1  0
  2  3  1  0
  3  4  1  0
  4  5  1  0
  5  6  2  0
  4  7  2  0
  2  8  1  0
  6  9  1  0
  9 10  1  0
M  END

> <chembl_id>
CHEMBL2205241

> <chembl_pref_name>
None

$$$$

     RDKit          2D

  9  9  0  0  0  0  0  0  0  0999 V2000
    6.4691   -3.5435    0.0000 S   0  0  0  0  0  0  0  0  0  0  0  0
    5.7546   -2.3060    0.0000 N   0  0  0  0  0  0  0  0  0  0  0  0
    5.0402   -3.5435    0.0000 N   0  0  0  0  0  0  0  0  0  0  0  0
    5.0402   -1.0685    0.0000 N   0  0  0  0  0  0  0  0  0  0  0  0
    3.6112   -3.5435    0.0000 N   0  0  0  0  0  0  0  0  0  0  0  0
    5.7546   -3.1310    0.0000 C   0  0  0  0  0  0  0  0  0  0  0  0
    5.0402   -1.8935    0.0000 C   0  0  0  0  0  0  0  0  0  0  0  0
    4.3257   -3.1310    0.0000 C   0  0  0  0  0  0  0  0  0  0  0  0
    4.3257   -2.3060    0.0000 C   0  0  0  0  0  0  0  0  0  0  0  0
  1  6  1  0
  2  6  1  0
  2  7  2  0
  3  6  2  0
  3  8  1  0
  4  7  1  0
  5  8  1  0
  7  9  1  0
  8  9  2  0
M  END

> <chembl_id>
CHEMBL1868693

> <chembl_pref_name>
None

$$$$

     RDKit          2D

  8  8  0  0  0  0  0  0  0  0999 V2000
   15.7123  -14.6124    0.0000 N   0  0  0  0  0  0  0  0  0  0  0  0
   16.5373  -14.6124    0.0000 C   0  0  0  0  0  0  0  0  0  0  0  0
   16.7941  -13.8282    0.0000 S   0  0  0  0  0  0  0  0  0  0  0  0
   16.1248  -13.3415    0.0000 C   0  0  0  0  0  0  0  0  0  0  0  0
   15.4598  -13.8282    0.0000 C   0  0  0  0  0  0  0  0  0  0  0  0
   16.1248  -12.5165    0.0000 C   0  0  0  0  0  0  0  0  0  0  0  0
   16.8374  -12.1029    0.0000 O   0  0  0  0  0  0  0  0  0  0  0  0
   17.0214  -15.2804    0.0000 Cl  0  0  0  0  0  0  0  0  0  0  0  0
  1  2  2  0
  2  3  1  0
  3  4  1  0
  4  5  2  0
  5  1  1  0
  4  6  1  0
  6  7  2  0
  2  8  1  0
M  END

> <chembl_id>
CHEMBL2228159

> <chembl_pref_name>
None

$$$$

     RDKit          2D

 10 10  0  0  0  0  0  0  0  0999 V2000
    1.9943   -2.3081    0.0000 C   0  0  0  0  0  0  0  0  0  0  0  0
    3.3239   -2.3081    0.0000 C   0  0  0  0  0  0  0  0  0  0  0  0
    1.3296   -1.1541    0.0000 C   0  0  0  0  0  0  0  0  0  0  0  0
    3.9887   -1.1541    0.0000 C   0  0  0  0  0  0  0  0  0  0  0  0
    1.3296   -3.4568    0.0000 C   0  0  0  0  0  0  0  0  0  0  0  0
    3.9887   -3.4568    0.0000 C   0  0  0  0  0  0  0  0  0  0  0  0
    1.9943    0.0000    0.0000 C   0  0  0  0  0  0  0  0  0  0  0  0
    3.3239    0.0000    0.0000 C   0  0  0  0  0  0  0  0  0  0  0  0
    0.0000   -3.4568    0.0000 C   0  0  0  0  0  0  0  0  0  0  0  0
    5.3182   -3.4568    0.0000 C   0  0  0  0  0  0  0  0  0  0  0  0
  1  2  1  0
  1  3  2  0
  1  5  1  0
  2  4  2  0
  2  6  1  0
  3  7  1  0
  4  8  1  0
  5  9  2  0
  6 10  2  0
  7  8  2  0
M  END

> <chembl_id>
CHEMBL2133396

> <chembl_pref_name>
None

$$$$

     RDKit          2D

 10 12  0  0  0  0  0  0  0  0999 V2000
    2.2750   -2.2792    0.0000 N   0  0  0  0  0  0  0  0  0  0  0  0
    1.4292   -2.0250    0.0000 C   0  0  0  0  0  0  0  0  0  0  0  0
    1.9250   -1.3500    0.0000 C   0  0  0  0  0  0  0  0  0  0  0  0
    0.6417   -1.7667    0.0000 C   0  0  0  0  0  0  0  0  0  0  0  0
    0.6417   -0.9375    0.0000 C   0  0  0  0  0  0  0  0  0  0  0  0
    1.4292   -0.6792    0.0000 C   0  0  0  0  0  0  0  0  0  0  0  0
   -0.0708   -2.1792    0.0000 C   0  0  0  0  0  0  0  0  0  0  0  0
   -0.0708   -0.5250    0.0000 C   0  0  0  0  0  0  0  0  0  0  0  0
   -0.7833   -1.7667    0.0000 C   0  0  0  0  0  0  0  0  0  0  0  0
   -0.7833   -0.9375    0.0000 C   0  0  0  0  0  0  0  0  0  0  0  0
  2  1  1  0
  3  1  1  0
  4  2  1  0
  5  6  1  0
  6  3  1  0
  7  4  2  0
  8  5  2  0
  9  7  1  0
 10  8  1  0
  3  2  1  0
  5  4  1  0
  9 10  2  0
M  END

> <chembl_id>
CHEMBL173990

> <chembl_pref_name>
None

$$$$

     RDKit          2D

  9  9  0  0  0  0  0  0  0  0999 V2000
   14.4875  -10.0542    0.0000 N   0  0  0  0  0  0  0  0  0  0  0  0
   14.4875   -9.0167    0.0000 O   0  0  0  0  0  0  0  0  0  0  0  0
   15.3917  -10.5667    0.0000 C   0  0  0  0  0  0  0  0  0  0  0  0
   13.5875  -10.5667    0.0000 C   0  0  0  0  0  0  0  0  0  0  0  0
   15.3917  -11.6042    0.0000 C   0  0  0  0  0  0  0  0  0  0  0  0
   13.5875  -11.6042    0.0000 C   0  0  0  0  0  0  0  0  0  0  0  0
   14.4875  -12.1292    0.0000 C   0  0  0  0  0  0  0  0  0  0  0  0
   14.4875  -13.1667    0.0000 N   0  0  0  0  0  0  0  0  0  0  0  0
   13.5792  -13.6875    0.0000 O   0  0  0  0  0  0  0  0  0  0  0  0
  2  1  1  0
  3  1  2  0
  4  1  1  0
  5  3  1  0
  6  4  2  0
  7  6  1  0
  8  7  1  0
  9  8  1  0
  5  7  2  0
M  CHG  2   1   1   2  -1
M  END

> <chembl_id>
CHEMBL82787

> <chembl_pref_name>
None

$$$$

     RDKit          2D

  9  9  0  0  0  0  0  0  0  0999 V2000
   -0.9791  -11.4575    0.0000 N   0  0  0  0  0  0  0  0  0  0  0  0
   -0.1542  -11.4575    0.0000 N   0  0  0  0  0  0  0  0  0  0  0  0
    0.1026  -10.6734    0.0000 C   0  0  0  0  0  0  0  0  0  0  0  0
   -0.5667  -10.1867    0.0000 C   0  0  0  0  0  0  0  0  0  0  0  0
   -1.2316  -10.6734    0.0000 C   0  0  0  0  0  0  0  0  0  0  0  0
    0.8909  -10.4176    0.0000 C   0  0  0  0  0  0  0  0  0  0  0  0
    1.5032  -10.9704    0.0000 O   0  0  0  0  0  0  0  0  0  0  0  0
    1.0635   -9.6109    0.0000 O   0  0  0  0  0  0  0  0  0  0  0  0
   -2.0163  -10.4188    0.0000 C   0  0  0  0  0  0  0  0  0  0  0  0
  4  5  2  0
  5  1  1  0
  1  2  1  0
  2  3  2  0
  6  7  1  0
  6  8  2  0
  3  6  1  0
  3  4  1  0
  5  9  1  0
M  END

> <chembl_id>
CHEMBL391574

> <chembl_pref_name>
None

$$$$

     RDKit          2D

 10 10  0  0  0  0  0  0  0  0999 V2000
    4.2913   -0.0668    0.0000 N   0  0  0  0  0  0  0  0  0  0  0  0
    0.0000    0.0000    0.0000 N   0  0  0  0  0  0  0  0  0  0  0  0
    2.8452   -0.8667    0.0000 C   0  0  0  0  0  0  0  0  0  0  0  0
    1.4146   -0.8401    0.0000 C   0  0  0  0  0  0  0  0  0  0  0  0
    2.1376   -0.4465    0.0000 C   0  0  0  0  0  0  0  0  0  0  0  0
    2.8298   -1.6935    0.0000 C   0  0  0  0  0  0  0  0  0  0  0  0
    1.3992   -1.6668    0.0000 C   0  0  0  0  0  0  0  0  0  0  0  0
    2.1068   -2.0956    0.0000 C   0  0  0  0  0  0  0  0  0  0  0  0
    3.5681   -0.4732    0.0000 C   0  0  0  0  0  0  0  0  0  0  0  0
    0.7069   -0.4198    0.0000 C   0  0  0  0  0  0  0  0  0  0  0  0
  1  9  3  0
  2 10  3  0
  3  5  1  0
  3  6  2  0
  3  9  1  0
  4  5  2  0
  4  7  1  0
  4 10  1  0
  6  8  1  0
  7  8  2  0
M  END

> <chembl_id>
CHEMBL3182143

> <chembl_pref_name>
None

$$$$

     RDKit          2D

 11 11  0  0  0  0  0  0  0  0999 V2000
   14.2069   -4.6583    0.0000 C   0  0  0  0  0  0  0  0  0  0  0  0
   14.2057   -5.4857    0.0000 C   0  0  0  0  0  0  0  0  0  0  0  0
   14.9206   -5.8985    0.0000 C   0  0  0  0  0  0  0  0  0  0  0  0
   15.6370   -5.4852    0.0000 C   0  0  0  0  0  0  0  0  0  0  0  0
   15.6341   -4.6547    0.0000 C   0  0  0  0  0  0  0  0  0  0  0  0
   14.9188   -4.2455    0.0000 C   0  0  0  0  0  0  0  0  0  0  0  0
   14.9163   -3.4205    0.0000 C   0  0  0  0  0  0  0  0  0  0  0  0
   15.6295   -3.0059    0.0000 C   0  0  0  0  0  0  0  0  0  0  0  0
   14.9204   -6.7235    0.0000 O   0  0  0  0  0  0  0  0  0  0  0  0
   16.3452   -3.4163    0.0000 C   0  0  0  0  0  0  0  0  0  0  0  0
   17.0585   -3.0016    0.0000 O   0  0  0  0  0  0  0  0  0  0  0  0
  5  6  2  0
  6  1  1  0
  1  2  2  0
  6  7  1  0
  3  4  2  0
  7  8  2  0
  3  9  1  0
  4  5  1  0
  8 10  1  0
  2  3  1  0
 10 11  2  0
M  END

> <chembl_id>
CHEMBL1956164

> <chembl_pref_name>
None

$$$$

     RDKit          2D

 10 10  0  0  0  0  0  0  0  0999 V2000
   33.9184   -3.5340    0.0000 C   0  0  0  0  0  0  0  0  0  0  0  0
   34.6342   -3.9437    0.0000 C   0  0  0  0  0  0  0  0  0  0  0  0
   35.3468   -3.5287    0.0000 N   0  0  0  0  0  0  0  0  0  0  0  0
   36.0581   -3.1114    0.0000 N   0  0  0  0  0  0  0  0  0  0  0  0
   36.7704   -2.6949    0.0000 N   0  0  0  0  0  0  0  0  0  0  0  0
   33.9140   -2.7105    0.0000 C   0  0  0  0  0  0  0  0  0  0  0  0
   33.2024   -2.3010    0.0000 C   0  0  0  0  0  0  0  0  0  0  0  0
   32.4873   -2.7125    0.0000 C   0  0  0  0  0  0  0  0  0  0  0  0
   32.4884   -3.5382    0.0000 C   0  0  0  0  0  0  0  0  0  0  0  0
   33.2047   -3.9523    0.0000 C   0  0  0  0  0  0  0  0  0  0  0  0
  1  2  1  0
  2  3  1  0
  3  4  2  0
  4  5  2  0
  1  6  2  0
  1 10  1  0
  6  7  1  0
  7  8  2  0
  8  9  1  0
  9 10  2  0
M  CHG  2   4   1   5  -1
M  END

> <chembl_id>
CHEMBL3236190

> <chembl_pref_name>
None

$$$$

     RDKit          2D

 11 11  0  0  0  0  0  0  0  0999 V2000
   -1.3083   -1.8042    0.0000 N   0  0  0  0  0  0  0  0  0  0  0  0
   -0.7833   -1.5042    0.0000 C   0  0  0  0  0  0  0  0  0  0  0  0
   -1.8250   -1.5042    0.0000 O   0  0  0  0  0  0  0  0  0  0  0  0
   -1.3083   -2.4042    0.0000 O   0  0  0  0  0  0  0  0  0  0  0  0
    0.7667   -0.6000    0.0000 C   0  0  0  0  0  0  0  0  0  0  0  0
   -0.7833   -0.9042    0.0000 C   0  0  0  0  0  0  0  0  0  0  0  0
   -0.2708   -1.8042    0.0000 C   0  0  0  0  0  0  0  0  0  0  0  0
    1.2917   -0.8917    0.0000 C   0  0  0  0  0  0  0  0  0  0  0  0
    0.2542   -0.9042    0.0000 C   0  0  0  0  0  0  0  0  0  0  0  0
   -0.2708   -0.6042    0.0000 C   0  0  0  0  0  0  0  0  0  0  0  0
    0.2542   -1.5042    0.0000 C   0  0  0  0  0  0  0  0  0  0  0  0
  2  1  1  0
  3  1  1  0
  4  1  2  0
  5  9  1  0
  6  2  2  0
  7  2  1  0
  8  5  2  0
  9 11  1  0
 10  6  1  0
 11  7  2  0
  9 10  2  0
M  CHG  2   1   1   3  -1
M  END

> <chembl_id>
CHEMBL164351

> <chembl_pref_name>
None

$$$$

     RDKit          2D

 10 10  0  0  0  0  0  0  0  0999 V2000
   13.4411   -0.5307    0.0000 C   0  0  0  0  0  0  0  0  0  0  0  0
   13.4399   -1.3569    0.0000 C   0  0  0  0  0  0  0  0  0  0  0  0
   14.1515   -1.7691    0.0000 C   0  0  0  0  0  0  0  0  0  0  0  0
   14.8697   -1.3564    0.0000 C   0  0  0  0  0  0  0  0  0  0  0  0
   14.8665   -0.5268    0.0000 C   0  0  0  0  0  0  0  0  0  0  0  0
   14.1496   -0.1186    0.0000 C   0  0  0  0  0  0  0  0  0  0  0  0
   14.1502   -2.5926    0.0000 C   0  0  0  0  0  0  0  0  0  0  0  0
   13.4362   -3.0033    0.0000 N   0  0  0  0  0  0  0  0  0  0  0  0
   13.4349   -3.8269    0.0000 C   0  0  0  0  0  0  0  0  0  0  0  0
   12.7237   -2.5903    0.0000 C   0  0  0  0  0  0  0  0  0  0  0  0
  2  3  1  0
  5  6  2  0
  6  1  1  0
  1  2  2  0
  3  7  1  0
  3  4  2  0
  7  8  1  0
  8  9  1  0
  4  5  1  0
  8 10  1  0
M  END

> <chembl_id>
CHEMBL45591

> <chembl_pref_name>
None

$$$$

     RDKit          2D

 10 10  0  0  0  0  0  0  0  0999 V2000
   -3.6624  -22.2308    0.0000 C   0  0  0  0  0  0  0  0  0  0  0  0
   -3.6635  -23.0570    0.0000 C   0  0  0  0  0  0  0  0  0  0  0  0
   -2.9501  -23.4693    0.0000 N   0  0  0  0  0  0  0  0  0  0  0  0
   -2.2352  -23.0565    0.0000 C   0  0  0  0  0  0  0  0  0  0  0  0
   -2.2379  -22.2275    0.0000 C   0  0  0  0  0  0  0  0  0  0  0  0
   -2.9518  -21.8187    0.0000 C   0  0  0  0  0  0  0  0  0  0  0  0
   -1.5196  -23.4670    0.0000 C   0  0  0  0  0  0  0  0  0  0  0  0
   -1.5182  -24.2910    0.0000 O   0  0  0  0  0  0  0  0  0  0  0  0
   -0.8067  -23.0539    0.0000 N   0  0  0  0  0  0  0  0  0  0  0  0
   -0.0924  -23.4648    0.0000 O   0  0  0  0  0  0  0  0  0  0  0  0
  2  3  1  0
  5  6  2  0
  6  1  1  0
  1  2  2  0
  3  4  2  0
  7  8  2  0
  7  9  1  0
  4  7  1  0
  4  5  1  0
  9 10  1  0
M  END

> <chembl_id>
CHEMBL1801806

> <chembl_pref_name>
None

$$$$

     RDKit          2D

  6  6  0  0  0  0  0  0  0  0999 V2000
    1.4553   -2.0031    0.0000 N   0  0  0  0  0  0  0  0  0  0  0  0
    0.7500   -1.0323    0.0000 C   0  0  0  0  0  0  0  0  0  0  0  0
    1.2135    0.3943    0.0000 N   0  0  0  0  0  0  0  0  0  0  0  0
    0.0000    1.2760    0.0000 C   0  0  0  0  0  0  0  0  0  0  0  0
   -1.2135    0.3943    0.0000 N   0  0  0  0  0  0  0  0  0  0  0  0
   -0.7500   -1.0323    0.0000 N   0  0  0  0  0  0  0  0  0  0  0  0
  1  2  1  0
  2  3  1  0
  3  4  2  0
  4  5  1  0
  5  6  1  0
  6  2  2  0
M  END

> <chembl_id>
CHEMBL232801

> <chembl_pref_name>
AMITROLE

$$$$

     RDKit          2D

 11 11  0  0  0  0  0  0  0  0999 V2000
   12.6273   -3.7444    0.0000 C   0  0  0  0  0  0  0  0  0  0  0  0
   12.6261   -4.5715    0.0000 C   0  0  0  0  0  0  0  0  0  0  0  0
   13.3407   -4.9842    0.0000 C   0  0  0  0  0  0  0  0  0  0  0  0
   14.0569   -4.5710    0.0000 C   0  0  0  0  0  0  0  0  0  0  0  0
   14.0540   -3.7408    0.0000 C   0  0  0  0  0  0  0  0  0  0  0  0
   13.3389   -3.3318    0.0000 C   0  0  0  0  0  0  0  0  0  0  0  0
   14.7717   -4.9823    0.0000 N   0  0  0  0  0  0  0  0  0  0  0  0
   15.4852   -4.5687    0.0000 C   0  0  0  0  0  0  0  0  0  0  0  0
   16.2002   -4.9800    0.0000 C   0  0  0  0  0  0  0  0  0  0  0  0
   15.4839   -3.7440    0.0000 O   0  0  0  0  0  0  0  0  0  0  0  0
   16.2015   -5.8047    0.0000 O   0  0  0  0  0  0  0  0  0  0  0  0
  5  6  2  0
  6  1  1  0
  1  2  2  0
  4  7  1  0
  3  4  2  0
  7  8  1  0
  8  9  1  0
  4  5  1  0
  8 10  2  0
  2  3  1  0
  9 11  2  0
M  END

> <chembl_id>
CHEMBL234024

> <chembl_pref_name>
None

$$$$

     RDKit          2D

  9  9  0  0  0  0  0  0  0  0999 V2000
    1.1438    1.1643    0.0000 O   0  0  0  0  0  0  0  0  0  0  0  0
    1.1438    0.3393    0.0000 C   0  0  0  0  0  0  0  0  0  0  0  0
    0.4294   -0.0732    0.0000 C   0  0  0  0  0  0  0  0  0  0  0  0
    0.4294   -0.8982    0.0000 C   0  0  0  0  0  0  0  0  0  0  0  0
   -0.2851   -1.3107    0.0000 C   0  0  0  0  0  0  0  0  0  0  0  0
   -0.9996   -0.8982    0.0000 C   0  0  0  0  0  0  0  0  0  0  0  0
   -0.9996   -0.0732    0.0000 C   0  0  0  0  0  0  0  0  0  0  0  0
   -0.2851    0.3393    0.0000 C   0  0  0  0  0  0  0  0  0  0  0  0
   -0.2851    1.1643    0.0000 O   0  0  0  0  0  0  0  0  0  0  0  0
  2  1  2  0
  3  2  1  0
  3  4  1  0
  3  8  2  0
  4  5  2  0
  5  6  1  0
  7  6  2  0
  8  7  1  0
  8  9  1  0
M  END

> <chembl_id>
CHEMBL108925

> <chembl_pref_name>
SALICYLADEHYDE

$$$$

     RDKit          2D

 11 11  0  0  0  0  0  0  0  0999 V2000
    2.2542    0.5083    0.0000 C   0  0  0  0  0  0  0  0  0  0  0  0
    1.6417    0.8583    0.0000 C   0  0  0  0  0  0  0  0  0  0  0  0
    2.8667    0.8625    0.0000 N   0  0  0  0  0  0  0  0  0  0  0  0
    1.0292    0.5000    0.0000 C   0  0  0  0  0  0  0  0  0  0  0  0
    2.6125   -0.1042    0.0000 C   0  0  0  0  0  0  0  0  0  0  0  0
    1.9042   -0.1042    0.0000 C   0  0  0  0  0  0  0  0  0  0  0  0
    0.4167    0.8583    0.0000 C   0  0  0  0  0  0  0  0  0  0  0  0
    1.0292   -0.2125    0.0000 C   0  0  0  0  0  0  0  0  0  0  0  0
   -0.1958    0.5000    0.0000 C   0  0  0  0  0  0  0  0  0  0  0  0
    0.4167   -0.5667    0.0000 C   0  0  0  0  0  0  0  0  0  0  0  0
   -0.1958   -0.2125    0.0000 C   0  0  0  0  0  0  0  0  0  0  0  0
  2  1  1  0
  3  1  1  0
  4  2  1  0
  5  1  1  0
  6  1  1  0
  7  4  2  0
  8  4  1  0
  9  7  1  0
 10  8  2  0
 11  9  2  0
 10 11  1  0
M  END

> <chembl_id>
CHEMBL1574

> <chembl_pref_name>
PHENTERMINE

$$$$

     RDKit          2D

  8  8  0  0  0  0  0  0  0  0999 V2000
    9.1980   -5.7572    0.0000 N   0  0  0  0  0  0  0  0  0  0  0  0
   10.0229   -5.7572    0.0000 C   0  0  0  0  0  0  0  0  0  0  0  0
   10.2796   -4.9731    0.0000 C   0  0  0  0  0  0  0  0  0  0  0  0
    9.6104   -4.4865    0.0000 N   0  0  0  0  0  0  0  0  0  0  0  0
    8.9455   -4.9731    0.0000 S   0  0  0  0  0  0  0  0  0  0  0  0
   11.0677   -4.7174    0.0000 C   0  0  0  0  0  0  0  0  0  0  0  0
   11.6800   -5.2702    0.0000 O   0  0  0  0  0  0  0  0  0  0  0  0
   11.2404   -3.9109    0.0000 O   0  0  0  0  0  0  0  0  0  0  0  0
  3  4  2  0
  4  5  1  0
  5  1  1  0
  1  2  2  0
  2  3  1  0
  6  7  1  0
  6  8  2  0
  3  6  1  0
M  END

> <chembl_id>
CHEMBL247135

> <chembl_pref_name>
None

$$$$

     RDKit          2D

 11 12  0  0  0  0  0  0  0  0999 V2000
    0.8238   -0.4879    0.0000 O   0  0  0  0  0  0  0  0  0  0  0  0
    1.8633    0.5516    0.0000 C   0  0  0  0  0  0  0  0  0  0  0  0
    1.8633    1.3766    0.0000 C   0  0  0  0  0  0  0  0  0  0  0  0
    1.0787    0.2967    0.0000 C   0  0  0  0  0  0  0  0  0  0  0  0
    1.0787    1.6316    0.0000 C   0  0  0  0  0  0  0  0  0  0  0  0
    2.5778    1.7891    0.0000 C   0  0  0  0  0  0  0  0  0  0  0  0
    2.5778    0.1391    0.0000 C   0  0  0  0  0  0  0  0  0  0  0  0
    0.5938    0.9641    0.0000 C   0  0  0  0  0  0  0  0  0  0  0  0
    3.2923    1.3766    0.0000 C   0  0  0  0  0  0  0  0  0  0  0  0
    3.2923    0.5516    0.0000 C   0  0  0  0  0  0  0  0  0  0  0  0
    4.0068    1.7891    0.0000 C   0  0  0  0  0  0  0  0  0  0  0  0
  1  4  2  0
  2  3  2  0
  2  4  1  0
  2  7  1  0
  3  5  1  0
  3  6  1  0
  4  8  1  0
  5  8  1  0
  6  9  2  0
  7 10  2  0
  9 10  1  0
  9 11  1  0
M  END

> <chembl_id>
CHEMBL1904798

> <chembl_pref_name>
None

$$$$

     RDKit          2D

 11 11  0  0  0  0  0  0  0  0999 V2000
    7.0917   -3.2500    0.0000 C   0  0  0  0  0  0  0  0  0  0  0  0
    8.1417   -2.6542    0.0000 N   0  0  0  0  0  0  0  0  0  0  0  0
    7.0792   -4.4542    0.0000 N   0  0  0  0  0  0  0  0  0  0  0  0
    7.6167   -2.9542    0.0000 C   0  0  0  0  0  0  0  0  0  0  0  0
    7.0875   -3.8542    0.0000 C   0  0  0  0  0  0  0  0  0  0  0  0
    6.5750   -2.9417    0.0000 C   0  0  0  0  0  0  0  0  0  0  0  0
    6.0500   -3.2375    0.0000 C   0  0  0  0  0  0  0  0  0  0  0  0
    5.5667   -3.6000    0.0000 O   0  0  0  0  0  0  0  0  0  0  0  0
    5.8542   -2.6667    0.0000 C   0  0  0  0  0  0  0  0  0  0  0  0
    5.0792   -3.2542    0.0000 C   0  0  0  0  0  0  0  0  0  0  0  0
    5.2542   -2.6792    0.0000 C   0  0  0  0  0  0  0  0  0  0  0  0
  2  4  3  0
  3  5  3  0
  4  1  1  0
  5  1  1  0
  6  1  2  0
  7  6  1  0
  8  7  1  0
  9  7  2  0
 10  8  1  0
 11  9  1  0
 10 11  2  0
M  END

> <chembl_id>
CHEMBL300341

> <chembl_pref_name>
None

$$$$

     RDKit          2D

 10 10  0  0  0  0  0  0  0  0999 V2000
    0.9044   -0.0167    0.0000 C   0  0  0  0  0  0  0  0  0  0  0  0
    0.2542    0.4584    0.0000 C   0  0  0  0  0  0  0  0  0  0  0  0
    0.5043    1.2460    0.0000 N   0  0  0  0  0  0  0  0  0  0  0  0
    1.3295    1.2335    0.0000 N   0  0  0  0  0  0  0  0  0  0  0  0
    1.5753    0.4584    0.0000 C   0  0  0  0  0  0  0  0  0  0  0  0
    0.8919   -0.8419    0.0000 C   0  0  0  0  0  0  0  0  0  0  0  0
    1.6045   -1.2669    0.0000 O   0  0  0  0  0  0  0  0  0  0  0  0
   -0.5376    0.1958    0.0000 O   0  0  0  0  0  0  0  0  0  0  0  0
    0.1750   -1.2502    0.0000 O   0  0  0  0  0  0  0  0  0  0  0  0
    1.8170    1.9004    0.0000 C   0  0  0  0  0  0  0  0  0  0  0  0
  2  1  1  0
  3  2  1  0
  4  5  1  0
  5  1  2  0
  6  1  1  0
  7  6  2  0
  8  2  2  0
  9  6  1  0
 10  4  1  0
  4  3  1  0
M  END

> <chembl_id>
CHEMBL65728

> <chembl_pref_name>
None

$$$$

     RDKit          2D

 10 10  0  0  0  0  0  0  0  0999 V2000
    2.4625   -2.0917    0.0000 N   0  0  0  0  0  0  0  0  0  0  0  0
    2.7250   -2.8792    0.0000 C   0  0  0  0  0  0  0  0  0  0  0  0
    2.0542   -3.3750    0.0000 N   0  0  0  0  0  0  0  0  0  0  0  0
    2.9375   -1.4042    0.0000 C   0  0  0  0  0  0  0  0  0  0  0  0
    1.6500   -2.1000    0.0000 N   0  0  0  0  0  0  0  0  0  0  0  0
    1.3917   -2.8875    0.0000 C   0  0  0  0  0  0  0  0  0  0  0  0
    2.5750   -0.6667    0.0000 O   0  0  0  0  0  0  0  0  0  0  0  0
    3.5167   -3.1375    0.0000 N   0  0  0  0  0  0  0  0  0  0  0  0
    3.7667   -1.4750    0.0000 N   0  0  0  0  0  0  0  0  0  0  0  0
    4.2292   -0.7917    0.0000 C   0  0  0  0  0  0  0  0  0  0  0  0
  2  1  1  0
  3  2  2  0
  4  1  1  0
  5  1  1  0
  6  5  2  0
  7  4  2  0
  8  2  1  0
  9  4  1  0
 10  9  1  0
  6  3  1  0
M  END

> <chembl_id>
CHEMBL103933

> <chembl_pref_name>
None

$$$$

     RDKit          2D

  8  8  0  0  0  0  0  0  0  0999 V2000
   -0.5556   -3.7212    0.0000 S   0  0  0  0  0  0  0  0  0  0  0  0
   -0.1431   -1.6266    0.0000 P   0  0  0  0  0  0  0  0  0  0  0  0
   -0.8575   -1.2141    0.0000 O   0  0  0  0  0  0  0  0  0  0  0  0
    0.5714   -1.2141    0.0000 O   0  0  0  0  0  0  0  0  0  0  0  0
   -0.1431   -2.4516    0.0000 C   0  0  0  0  0  0  0  0  0  0  0  0
   -0.8105   -2.9365    0.0000 C   0  0  0  0  0  0  0  0  0  0  0  0
    0.5244   -2.9365    0.0000 C   0  0  0  0  0  0  0  0  0  0  0  0
    0.2694   -3.7212    0.0000 C   0  0  0  0  0  0  0  0  0  0  0  0
  1  6  1  0
  1  8  1  0
  2  3  2  0
  2  4  1  0
  2  5  1  0
  5  6  2  0
  5  7  1  0
  7  8  2  0
M  END

> <chembl_id>
CHEMBL1979593

> <chembl_pref_name>
None

$$$$

     RDKit          2D

  7  7  0  0  0  0  0  0  0  0999 V2000
    6.8667   -0.9917    0.0000 N   0  0  0  0  0  0  0  0  0  0  0  0
    7.1167   -1.7792    0.0000 C   0  0  0  0  0  0  0  0  0  0  0  0
    7.5292   -0.5042    0.0000 C   0  0  0  0  0  0  0  0  0  0  0  0
    7.9417   -1.7792    0.0000 N   0  0  0  0  0  0  0  0  0  0  0  0
    8.2000   -0.9917    0.0000 O   0  0  0  0  0  0  0  0  0  0  0  0
    6.6292   -2.4417    0.0000 O   0  0  0  0  0  0  0  0  0  0  0  0
    7.5292    0.3208    0.0000 O   0  0  0  0  0  0  0  0  0  0  0  0
  2  1  1  0
  3  1  1  0
  4  2  1  0
  5  3  1  0
  6  2  2  0
  7  3  2  0
  5  4  1  0
M  END

> <chembl_id>
CHEMBL17929

> <chembl_pref_name>
None

$$$$

     RDKit          2D

 10 10  0  0  0  0  0  0  0  0999 V2000
    3.1125   -3.4667    0.0000 N   0  0  0  0  0  0  0  0  0  0  0  0
    3.1125   -4.3542    0.0000 C   0  0  0  0  0  0  0  0  0  0  0  0
    3.8750   -4.7917    0.0000 N   0  0  0  0  0  0  0  0  0  0  0  0
    3.8750   -3.0250    0.0000 C   0  0  0  0  0  0  0  0  0  0  0  0
    4.6375   -3.4667    0.0000 C   0  0  0  0  0  0  0  0  0  0  0  0
    4.6375   -4.3542    0.0000 C   0  0  0  0  0  0  0  0  0  0  0  0
    2.3500   -4.7917    0.0000 O   0  0  0  0  0  0  0  0  0  0  0  0
    3.8750   -2.1417    0.0000 O   0  0  0  0  0  0  0  0  0  0  0  0
    3.8750   -5.6750    0.0000 C   0  0  0  0  0  0  0  0  0  0  0  0
    4.6417   -1.7000    0.0000 C   0  0  0  0  0  0  0  0  0  0  0  0
  2  1  1  0
  3  2  1  0
  4  1  2  0
  5  4  1  0
  6  5  2  0
  7  2  2  0
  8  4  1  0
  9  3  1  0
 10  8  1  0
  6  3  1  0
M  END

> <chembl_id>
CHEMBL273272

> <chembl_pref_name>
None

$$$$

     RDKit          2D

 10 10  0  0  0  0  0  0  0  0999 V2000
    8.5553   -5.8468    0.0000 C   0  0  0  0  0  0  0  0  0  0  0  0
    8.5553   -6.6718    0.0000 C   0  0  0  0  0  0  0  0  0  0  0  0
    9.2698   -7.0843    0.0000 C   0  0  0  0  0  0  0  0  0  0  0  0
    9.9843   -6.6718    0.0000 C   0  0  0  0  0  0  0  0  0  0  0  0
    9.9843   -5.8468    0.0000 C   0  0  0  0  0  0  0  0  0  0  0  0
    9.2698   -5.4343    0.0000 C   0  0  0  0  0  0  0  0  0  0  0  0
    9.2698   -7.9093    0.0000 O   0  0  0  0  0  0  0  0  0  0  0  0
    9.2698   -4.6093    0.0000 C   0  0  0  0  0  0  0  0  0  0  0  0
    8.5553   -4.1968    0.0000 O   0  0  0  0  0  0  0  0  0  0  0  0
   10.6988   -7.0843    0.0000 O   0  0  0  0  0  0  0  0  0  0  0  0
  2  3  1  0
  5  6  2  0
  6  1  1  0
  1  2  2  0
  3  7  1  0
  3  4  2  0
  6  8  1  0
  8  9  2  0
  4  5  1  0
  4 10  1  0
M  END

> <chembl_id>
CHEMBL222021

> <chembl_pref_name>
PROTOCATECHUALDEHYDE

$$$$

     RDKit          2D

 10 10  0  0  0  0  0  0  0  0999 V2000
    2.5951   -3.0039    0.0000 C   0  0  0  0  0  0  0  0  0  0  0  0
    2.5973   -1.5031    0.0000 C   0  0  0  0  0  0  0  0  0  0  0  0
    3.6375   -0.9049    0.0000 C   0  0  0  0  0  0  0  0  0  0  0  0
    3.6331   -3.6060    0.0000 O   0  0  0  0  0  0  0  0  0  0  0  0
    1.2990   -0.7500    0.0000 C   0  0  0  0  0  0  0  0  0  0  0  0
    1.2990    0.7500    0.0000 C   0  0  0  0  0  0  0  0  0  0  0  0
    0.0000    1.5000    0.0000 C   0  0  0  0  0  0  0  0  0  0  0  0
   -1.2990    0.7500    0.0000 C   0  0  0  0  0  0  0  0  0  0  0  0
   -1.2990   -0.7500    0.0000 C   0  0  0  0  0  0  0  0  0  0  0  0
    0.0000   -1.5000    0.0000 C   0  0  0  0  0  0  0  0  0  0  0  0
  1  2  1  0
  2  3  1  0
  1  4  2  0
  5  6  1  0
  6  7  2  0
  7  8  1  0
  8  9  2  0
  9 10  1  0
  5 10  2  0
  2  5  1  0
M  END

> <chembl_id>
CHEMBL3730701

> <chembl_pref_name>
None

$$$$

     RDKit          2D

  9  9  0  0  0  0  0  0  0  0999 V2000
   -0.8031   -2.2824    0.0000 C   0  0  0  0  0  0  0  0  0  0  0  0
   -0.3182   -1.6150    0.0000 C   0  0  0  0  0  0  0  0  0  0  0  0
   -0.5731   -0.8304    0.0000 O   0  0  0  0  0  0  0  0  0  0  0  0
    0.0943   -0.3455    0.0000 C   0  0  0  0  0  0  0  0  0  0  0  0
    0.7617   -0.8304    0.0000 C   0  0  0  0  0  0  0  0  0  0  0  0
    0.5068   -1.6150    0.0000 C   0  0  0  0  0  0  0  0  0  0  0  0
    0.0943    0.4795    0.0000 C   0  0  0  0  0  0  0  0  0  0  0  0
    0.8088    0.8920    0.0000 O   0  0  0  0  0  0  0  0  0  0  0  0
   -0.4676   -3.0361    0.0000 O   0  0  0  0  0  0  0  0  0  0  0  0
  1  2  1  0
  1  9  2  0
  2  3  1  0
  2  6  2  0
  4  3  1  0
  4  5  2  0
  4  7  1  0
  5  6  1  0
  7  8  1  0
M  END

> <chembl_id>
CHEMBL185885

> <chembl_pref_name>
AES-103

$$$$

     RDKit          2D

 11 12  0  0  0  0  0  0  0  0999 V2000
    7.0270   -3.5932    0.0000 C   0  0  0  0  0  0  0  0  0  0  0  0
    7.7277   -4.0308    0.0000 C   0  0  0  0  0  0  0  0  0  0  0  0
    7.6986   -4.8528    0.0000 C   0  0  0  0  0  0  0  0  0  0  0  0
    6.9707   -5.2410    0.0000 C   0  0  0  0  0  0  0  0  0  0  0  0
    6.2719   -4.8072    0.0000 C   0  0  0  0  0  0  0  0  0  0  0  0
    5.5439   -5.1954    0.0000 C   0  0  0  0  0  0  0  0  0  0  0  0
    4.8431   -4.7577    0.0000 C   0  0  0  0  0  0  0  0  0  0  0  0
    4.8702   -3.9320    0.0000 C   0  0  0  0  0  0  0  0  0  0  0  0
    5.5982   -3.5439    0.0000 C   0  0  0  0  0  0  0  0  0  0  0  0
    6.2990   -3.9814    0.0000 C   0  0  0  0  0  0  0  0  0  0  0  0
    7.0541   -2.7675    0.0000 O   0  0  0  0  0  0  0  0  0  0  0  0
  1  2  1  0
  2  3  2  0
  3  4  1  0
  4  5  2  0
  5  6  1  0
  6  7  2  0
  7  8  1  0
  8  9  1  0
  9 10  1  0
  1 10  2  0
  5 10  1  0
  1 11  1  0
M  END

> <chembl_id>
CHEMBL3246812

> <chembl_pref_name>
None

$$$$

     RDKit          2D

  8  8  0  0  0  0  0  0  0  0999 V2000
    8.6421   -4.1968    0.0000 N   0  0  0  0  0  0  0  0  0  0  0  0
    8.8936   -4.9812    0.0000 N   0  0  0  0  0  0  0  0  0  0  0  0
    8.2277   -5.4633    0.0000 C   0  0  0  0  0  0  0  0  0  0  0  0
    7.5618   -4.9812    0.0000 C   0  0  0  0  0  0  0  0  0  0  0  0
    7.8175   -4.1968    0.0000 C   0  0  0  0  0  0  0  0  0  0  0  0
    8.2277   -6.2916    0.0000 C   0  0  0  0  0  0  0  0  0  0  0  0
    7.5104   -6.7057    0.0000 C   0  0  0  0  0  0  0  0  0  0  0  0
    7.5104   -7.5339    0.0000 Cl  0  0  0  0  0  0  0  0  0  0  0  0
  1  2  1  0
  2  3  2  0
  3  4  1  0
  4  5  2  0
  1  5  1  0
  3  6  1  0
  6  7  1  0
  7  8  1  0
M  END

> <chembl_id>
CHEMBL3275948

> <chembl_pref_name>
None

$$$$

     RDKit          2D

  7  7  0  0  0  0  0  0  0  0999 V2000
    0.7145   -0.6482    0.0000 C   0  0  0  0  0  0  0  0  0  0  0  0
    0.0000   -1.0607    0.0000 C   0  0  0  0  0  0  0  0  0  0  0  0
   -0.7145   -0.6482    0.0000 C   0  0  0  0  0  0  0  0  0  0  0  0
   -0.7145    0.1768    0.0000 C   0  0  0  0  0  0  0  0  0  0  0  0
    0.0000    0.5893    0.0000 N   0  0  0  0  0  0  0  0  0  0  0  0
    0.7145    0.1768    0.0000 C   0  0  0  0  0  0  0  0  0  0  0  0
    0.0000    1.4143    0.0000 C   0  0  0  0  0  0  0  0  0  0  0  0
  3  4  2  0
  1  2  2  0
  4  5  1  0
  5  6  2  0
  6  1  1  0
  2  3  1  0
  5  7  1  0
M  CHG  1   5   1
M  END

> <chembl_id>
CHEMBL302326

> <chembl_pref_name>
None

$$$$

     RDKit          2D

 11 12  0  0  0  0  0  0  0  0999 V2000
    3.3250   -2.5042    0.0000 C   0  0  0  0  0  0  0  0  0  0  0  0
    3.9792   -3.2250    0.0000 N   0  0  0  0  0  0  0  0  0  0  0  0
    4.2792   -2.7042    0.0000 N   0  0  0  0  0  0  0  0  0  0  0  0
    3.3917   -3.1000    0.0000 N   0  0  0  0  0  0  0  0  0  0  0  0
    3.8750   -2.2542    0.0000 N   0  0  0  0  0  0  0  0  0  0  0  0
    2.8042   -2.2042    0.0000 C   0  0  0  0  0  0  0  0  0  0  0  0
    2.2792   -2.5042    0.0000 N   0  0  0  0  0  0  0  0  0  0  0  0
    2.2792   -1.3042    0.0000 N   0  0  0  0  0  0  0  0  0  0  0  0
    2.8042   -1.6042    0.0000 C   0  0  0  0  0  0  0  0  0  0  0  0
    1.7667   -2.2042    0.0000 C   0  0  0  0  0  0  0  0  0  0  0  0
    1.7667   -1.6042    0.0000 C   0  0  0  0  0  0  0  0  0  0  0  0
  2  4  2  0
  3  5  2  0
  4  1  1  0
  5  1  1  0
  6  1  1  0
  7  6  2  0
  8  9  2  0
  9  6  1  0
 10  7  1  0
 11  8  1  0
  2  3  1  0
 11 10  2  0
M  END

> <chembl_id>
CHEMBL309374

> <chembl_pref_name>
None

$$$$

     RDKit          2D

  9  9  0  0  0  0  0  0  0  0999 V2000
    7.1610   -1.1784    0.0000 C   0  0  0  0  0  0  0  0  0  0  0  0
    7.1599   -2.0053    0.0000 C   0  0  0  0  0  0  0  0  0  0  0  0
    7.8743   -2.4180    0.0000 C   0  0  0  0  0  0  0  0  0  0  0  0
    8.5903   -2.0048    0.0000 C   0  0  0  0  0  0  0  0  0  0  0  0
    8.5875   -1.1748    0.0000 C   0  0  0  0  0  0  0  0  0  0  0  0
    7.8725   -0.7659    0.0000 C   0  0  0  0  0  0  0  0  0  0  0  0
    9.2999   -0.7599    0.0000 C   0  0  0  0  0  0  0  0  0  0  0  0
   10.0155   -1.1694    0.0000 S   0  0  0  0  0  0  0  0  0  0  0  0
    6.4455   -2.4170    0.0000 F   0  0  0  0  0  0  0  0  0  0  0  0
  4  5  1  0
  2  3  1  0
  5  6  2  0
  6  1  1  0
  1  2  2  0
  5  7  1  0
  3  4  2  0
  7  8  1  0
  2  9  1  0
M  END

> <chembl_id>
CHEMBL1224558

> <chembl_pref_name>
None

$$$$

     RDKit          2D

 10 10  0  0  0  0  0  0  0  0999 V2000
    5.2042   -2.1917    0.0000 C   0  0  0  0  0  0  0  0  0  0  0  0
    5.2042   -1.3667    0.0000 C   0  0  0  0  0  0  0  0  0  0  0  0
    5.9167   -2.6042    0.0000 N   0  0  0  0  0  0  0  0  0  0  0  0
    5.9167   -0.9542    0.0000 C   0  0  0  0  0  0  0  0  0  0  0  0
    4.4917   -2.6042    0.0000 N   0  0  0  0  0  0  0  0  0  0  0  0
    6.6375   -2.1917    0.0000 C   0  0  0  0  0  0  0  0  0  0  0  0
    4.4917   -0.9542    0.0000 C   0  0  0  0  0  0  0  0  0  0  0  0
    6.6375   -1.3667    0.0000 C   0  0  0  0  0  0  0  0  0  0  0  0
    5.9167   -0.1292    0.0000 C   0  0  0  0  0  0  0  0  0  0  0  0
    4.4917   -0.1292    0.0000 C   0  0  0  0  0  0  0  0  0  0  0  0
  2  1  2  0
  3  1  1  0
  4  2  1  0
  5  1  1  0
  6  3  2  0
  7  2  1  0
  8  6  1  0
  9  4  1  0
 10  7  1  0
  8  4  2  0
M  END

> <chembl_id>
CHEMBL292981

> <chembl_pref_name>
None

$$$$

     RDKit          2D

  9  9  0  0  0  0  0  0  0  0999 V2000
   -0.3078   -1.4593    0.0000 O   0  0  0  0  0  0  0  0  0  0  0  0
    1.0742    1.0881    0.0000 O   0  0  0  0  0  0  0  0  0  0  0  0
    1.0742    0.2631    0.0000 N   0  0  0  0  0  0  0  0  0  0  0  0
    0.3597   -0.9744    0.0000 C   0  0  0  0  0  0  0  0  0  0  0  0
    0.3597   -0.1494    0.0000 C   0  0  0  0  0  0  0  0  0  0  0  0
    1.0271   -1.4593    0.0000 C   0  0  0  0  0  0  0  0  0  0  0  0
   -0.0528   -2.2439    0.0000 C   0  0  0  0  0  0  0  0  0  0  0  0
    0.7722   -2.2439    0.0000 C   0  0  0  0  0  0  0  0  0  0  0  0
   -0.3548    0.2631    0.0000 C   0  0  0  0  0  0  0  0  0  0  0  0
  1  4  1  0
  1  7  1  0
  2  3  1  0
  3  5  2  0
  4  5  1  0
  4  6  2  0
  5  9  1  0
  6  8  1  0
  7  8  2  0
M  END

> <chembl_id>
CHEMBL1474648

> <chembl_pref_name>
None

$$$$

     RDKit          2D

  9  9  0  0  0  0  0  0  0  0999 V2000
    6.8417   -6.7792    0.0000 N   0  0  0  0  0  0  0  0  0  0  0  0
    7.1292   -7.5500    0.0000 C   0  0  0  0  0  0  0  0  0  0  0  0
    5.8000   -7.6167    0.0000 N   0  0  0  0  0  0  0  0  0  0  0  0
    6.4917   -8.0667    0.0000 S   0  0  0  0  0  0  0  0  0  0  0  0
    6.0167   -6.8167    0.0000 C   0  0  0  0  0  0  0  0  0  0  0  0
    7.9292   -7.7667    0.0000 N   0  0  0  0  0  0  0  0  0  0  0  0
    5.5000   -6.1750    0.0000 C   0  0  0  0  0  0  0  0  0  0  0  0
    5.8000   -5.4042    0.0000 C   0  0  0  0  0  0  0  0  0  0  0  0
    5.2792   -4.7625    0.0000 C   0  0  0  0  0  0  0  0  0  0  0  0
  2  1  2  0
  3  5  2  0
  4  2  1  0
  5  1  1  0
  6  2  1  0
  7  5  1  0
  8  7  1  0
  9  8  1  0
  3  4  1  0
M  END

> <chembl_id>
CHEMBL47548

> <chembl_pref_name>
None

$$$$

     RDKit          2D

  8  8  0  0  0  0  0  0  0  0999 V2000
    0.9044   -0.4957    0.0000 C   0  0  0  0  0  0  0  0  0  0  0  0
    0.1899   -0.9082    0.0000 C   0  0  0  0  0  0  0  0  0  0  0  0
   -0.5245   -0.4957    0.0000 C   0  0  0  0  0  0  0  0  0  0  0  0
   -0.5245    0.3293    0.0000 C   0  0  0  0  0  0  0  0  0  0  0  0
    0.1899    0.7418    0.0000 C   0  0  0  0  0  0  0  0  0  0  0  0
    0.9044    0.3293    0.0000 N   0  0  0  0  0  0  0  0  0  0  0  0
    0.1899    1.5668    0.0000 N   0  0  0  0  0  0  0  0  0  0  0  0
   -1.2390   -0.9082    0.0000 C   0  0  0  0  0  0  0  0  0  0  0  0
  1  2  2  0
  1  6  1  0
  2  3  1  0
  3  4  2  0
  3  8  1  0
  4  5  1  0
  5  6  2  0
  5  7  1  0
M  END

> <chembl_id>
CHEMBL40833

> <chembl_pref_name>
None

$$$$

     RDKit          2D

  9  9  0  0  0  0  0  0  0  0999 V2000
   -0.6125   -3.1042    0.0000 C   0  0  0  0  0  0  0  0  0  0  0  0
   -0.0958   -3.4042    0.0000 C   0  0  0  0  0  0  0  0  0  0  0  0
    0.9417   -3.3917    0.0000 N   0  0  0  0  0  0  0  0  0  0  0  0
   -1.1333   -3.4042    0.0000 C   0  0  0  0  0  0  0  0  0  0  0  0
   -0.6125   -4.3042    0.0000 C   0  0  0  0  0  0  0  0  0  0  0  0
    0.4250   -3.1000    0.0000 C   0  0  0  0  0  0  0  0  0  0  0  0
   -1.1333   -4.0042    0.0000 C   0  0  0  0  0  0  0  0  0  0  0  0
   -0.0958   -4.0042    0.0000 C   0  0  0  0  0  0  0  0  0  0  0  0
   -1.6500   -3.1042    0.0000 C   0  0  0  0  0  0  0  0  0  0  0  0
  2  1  2  0
  3  6  1  0
  4  1  1  0
  5  7  1  0
  6  2  1  0
  7  4  2  0
  8  2  1  0
  9  4  1  0
  5  8  2  0
M  END

> <chembl_id>
CHEMBL274573

> <chembl_pref_name>
None

$$$$

     RDKit          2D

  8  8  0  0  0  0  0  0  0  0999 V2000
   19.4062  -25.3990    0.0000 N   0  0  0  0  0  0  0  0  0  0  0  0
   19.4062  -26.2162    0.0000 C   0  0  0  0  0  0  0  0  0  0  0  0
   20.1115  -26.6206    0.0000 N   0  0  0  0  0  0  0  0  0  0  0  0
   20.8168  -26.2162    0.0000 N   0  0  0  0  0  0  0  0  0  0  0  0
   20.8168  -25.3990    0.0000 C   0  0  0  0  0  0  0  0  0  0  0  0
   20.1115  -24.9862    0.0000 C   0  0  0  0  0  0  0  0  0  0  0  0
   20.1115  -24.1691    0.0000 O   0  0  0  0  0  0  0  0  0  0  0  0
   18.6991  -26.6258    0.0000 O   0  0  0  0  0  0  0  0  0  0  0  0
  1  2  1  0
  1  6  1  0
  2  3  1  0
  3  4  1  0
  4  5  2  0
  5  6  1  0
  6  7  2  0
  2  8  2  0
M  END

> <chembl_id>
CHEMBL2260276

> <chembl_pref_name>
6-AZAURACIL

$$$$

     RDKit          2D

  8  8  0  0  0  0  0  0  0  0999 V2000
   -0.2011    1.1859    0.0000 C   0  0  0  0  0  0  0  0  0  0  0  0
   -0.2011    0.3609    0.0000 C   0  0  0  0  0  0  0  0  0  0  0  0
    0.5134   -0.0516    0.0000 C   0  0  0  0  0  0  0  0  0  0  0  0
    0.5134   -0.8766    0.0000 C   0  0  0  0  0  0  0  0  0  0  0  0
   -0.2011   -1.2891    0.0000 C   0  0  0  0  0  0  0  0  0  0  0  0
   -0.9156   -0.8766    0.0000 C   0  0  0  0  0  0  0  0  0  0  0  0
   -0.9156   -0.0516    0.0000 C   0  0  0  0  0  0  0  0  0  0  0  0
   -0.9156    1.5984    0.0000 Cl  0  0  0  0  0  0  0  0  0  0  0  0
  1  2  1  0
  1  8  1  0
  2  3  2  0
  2  7  1  0
  3  4  1  0
  4  5  2  0
  5  6  1  0
  6  7  2  0
M  END

> <chembl_id>
CHEMBL498878

> <chembl_pref_name>
(CHLOROMETHYL)BENZENE

$$$$

     RDKit          2D

 10 10  0  0  0  0  0  0  0  0999 V2000
    2.5973   -1.5031    0.0000 N   0  0  0  0  0  0  0  0  0  0  0  0
    2.5951   -3.0039    0.0000 C   0  0  0  0  0  0  0  0  0  0  0  0
    1.2990   -0.7500    0.0000 C   0  0  0  0  0  0  0  0  0  0  0  0
    3.6331   -3.6060    0.0000 N   0  0  0  0  0  0  0  0  0  0  0  0
    1.2990    0.7500    0.0000 N   0  0  0  0  0  0  0  0  0  0  0  0
    1.5548   -3.6021    0.0000 N   0  0  0  0  0  0  0  0  0  0  0  0
    0.0000    1.5000    0.0000 C   0  0  0  0  0  0  0  0  0  0  0  0
    0.0000   -1.5000    0.0000 C   0  0  0  0  0  0  0  0  0  0  0  0
   -1.2990    0.7500    0.0000 C   0  0  0  0  0  0  0  0  0  0  0  0
   -1.2990   -0.7500    0.0000 C   0  0  0  0  0  0  0  0  0  0  0  0
  2  1  1  0
  3  1  1  0
  4  2  2  0
  5  3  2  0
  6  2  1  0
  7  5  1  0
  8  3  1  0
  9  7  2  0
 10  8  2  0
  9 10  1  0
M  END

> <chembl_id>
CHEMBL128047

> <chembl_pref_name>
None

$$$$

     RDKit          2D

  9  9  0  0  0  0  0  0  0  0999 V2000
    2.2920    1.2199    0.0000 P   0  0  0  0  0  0  0  0  0  0  0  0
    3.0065    1.6324    0.0000 O   0  0  0  0  0  0  0  0  0  0  0  0
    1.5775    1.6324    0.0000 O   0  0  0  0  0  0  0  0  0  0  0  0
    1.5775   -0.0176    0.0000 N   0  0  0  0  0  0  0  0  0  0  0  0
    2.2920    0.3949    0.0000 C   0  0  0  0  0  0  0  0  0  0  0  0
    3.0065   -0.0176    0.0000 C   0  0  0  0  0  0  0  0  0  0  0  0
    1.5775   -0.8426    0.0000 C   0  0  0  0  0  0  0  0  0  0  0  0
    3.0065   -0.8426    0.0000 C   0  0  0  0  0  0  0  0  0  0  0  0
    2.2920   -1.2551    0.0000 C   0  0  0  0  0  0  0  0  0  0  0  0
  1  2  2  0
  1  3  1  0
  1  5  1  0
  4  5  1  0
  4  7  2  0
  5  6  2  0
  6  8  1  0
  7  9  1  0
  8  9  2  0
M  END

> <chembl_id>
CHEMBL1994330

> <chembl_pref_name>
None

$$$$

     RDKit          2D

  8  8  0  0  0  0  0  0  0  0999 V2000
    1.9333  -23.8654    0.0000 C   0  0  0  0  0  0  0  0  0  0  0  0
    1.1481  -24.1207    0.0000 C   0  0  0  0  0  0  0  0  0  0  0  0
    0.6653  -23.4529    0.0000 C   0  0  0  0  0  0  0  0  0  0  0  0
    1.1481  -22.7851    0.0000 C   0  0  0  0  0  0  0  0  0  0  0  0
    1.9333  -23.0404    0.0000 N   0  0  0  0  0  0  0  0  0  0  0  0
    0.7125  -24.8280    0.0000 N   0  0  0  0  0  0  0  0  0  0  0  0
    1.1042  -25.5541    0.0000 O   0  0  0  0  0  0  0  0  0  0  0  0
   -0.1122  -24.8042    0.0000 O   0  0  0  0  0  0  0  0  0  0  0  0
  3  4  2  0
  4  5  1  0
  1  5  1  0
  1  2  2  0
  2  3  1  0
  6  7  2  0
  6  8  1  0
  2  6  1  0
M  CHG  2   6   1   8  -1
M  END

> <chembl_id>
CHEMBL1651442

> <chembl_pref_name>
None

$$$$

     RDKit          2D

  7  7  0  0  0  0  0  0  0  0999 V2000
    0.2756    1.4143    0.0000 Cl  0  0  0  0  0  0  0  0  0  0  0  0
    0.2756    0.5893    0.0000 C   0  0  0  0  0  0  0  0  0  0  0  0
    0.9901    0.1768    0.0000 C   0  0  0  0  0  0  0  0  0  0  0  0
    0.9901   -0.6482    0.0000 C   0  0  0  0  0  0  0  0  0  0  0  0
    0.2756   -1.0607    0.0000 C   0  0  0  0  0  0  0  0  0  0  0  0
   -0.4389   -0.6482    0.0000 C   0  0  0  0  0  0  0  0  0  0  0  0
   -0.4389    0.1768    0.0000 C   0  0  0  0  0  0  0  0  0  0  0  0
  2  1  1  0
  2  3  2  0
  2  7  1  0
  3  4  1  0
  4  5  2  0
  5  6  1  0
  6  7  2  0
M  END

> <chembl_id>
CHEMBL16200

> <chembl_pref_name>
CHLOROBENZENE

$$$$

     RDKit          2D

 11 11  0  0  0  0  0  0  0  0999 V2000
   -1.7423   -2.0072    0.0000 N   0  0  0  0  0  0  0  0  0  0  0  0
   -1.0278   -1.5947    0.0000 N   0  0  0  0  0  0  0  0  0  0  0  0
   -1.0278   -0.7697    0.0000 N   0  0  0  0  0  0  0  0  0  0  0  0
   -1.7423   -2.8322    0.0000 C   0  0  0  0  0  0  0  0  0  0  0  0
   -1.0278   -3.2447    0.0000 C   0  0  0  0  0  0  0  0  0  0  0  0
   -2.4568   -3.2447    0.0000 C   0  0  0  0  0  0  0  0  0  0  0  0
   -1.0278   -4.0697    0.0000 C   0  0  0  0  0  0  0  0  0  0  0  0
   -2.4568   -4.0697    0.0000 C   0  0  0  0  0  0  0  0  0  0  0  0
   -1.7423   -4.4822    0.0000 C   0  0  0  0  0  0  0  0  0  0  0  0
   -1.7423   -0.3572    0.0000 C   0  0  0  0  0  0  0  0  0  0  0  0
   -0.3134   -0.3572    0.0000 C   0  0  0  0  0  0  0  0  0  0  0  0
  1  2  2  0
  1  4  1  0
  2  3  1  0
  3 10  1  0
  3 11  1  0
  4  5  2  0
  4  6  1  0
  5  7  1  0
  6  8  2  0
  7  9  2  0
  8  9  1  0
M  END

> <chembl_id>
CHEMBL1981220

> <chembl_pref_name>
None

$$$$

     RDKit          2D

  9  9  0  0  0  0  0  0  0  0999 V2000
    9.3662   -4.1993    0.0000 C   0  0  0  0  0  0  0  0  0  0  0  0
    9.3651   -5.0263    0.0000 C   0  0  0  0  0  0  0  0  0  0  0  0
   10.0795   -5.4389    0.0000 C   0  0  0  0  0  0  0  0  0  0  0  0
   10.7955   -5.0258    0.0000 C   0  0  0  0  0  0  0  0  0  0  0  0
   10.7927   -4.1957    0.0000 C   0  0  0  0  0  0  0  0  0  0  0  0
   10.0777   -3.7867    0.0000 C   0  0  0  0  0  0  0  0  0  0  0  0
   11.5052   -3.7807    0.0000 C   0  0  0  0  0  0  0  0  0  0  0  0
   12.2209   -4.1903    0.0000 N   0  0  0  0  0  0  0  0  0  0  0  0
   12.2240   -5.0153    0.0000 O   0  0  0  0  0  0  0  0  0  0  0  0
  4  5  1  0
  2  3  1  0
  5  6  2  0
  6  1  1  0
  1  2  2  0
  5  7  1  0
  3  4  2  0
  7  8  2  0
  8  9  1  0
M  END

> <chembl_id>
CHEMBL265435

> <chembl_pref_name>
None

$$$$

     RDKit          2D

  9  9  0  0  0  0  0  0  0  0999 V2000
    0.7782    1.0179    0.0000 O   0  0  0  0  0  0  0  0  0  0  0  0
   -1.3652   -0.2196    0.0000 O   0  0  0  0  0  0  0  0  0  0  0  0
    0.0637   -1.0446    0.0000 N   0  0  0  0  0  0  0  0  0  0  0  0
    0.0637   -0.2196    0.0000 C   0  0  0  0  0  0  0  0  0  0  0  0
    0.7782    0.1929    0.0000 C   0  0  0  0  0  0  0  0  0  0  0  0
    1.4927   -0.2196    0.0000 C   0  0  0  0  0  0  0  0  0  0  0  0
   -0.6507    0.1929    0.0000 C   0  0  0  0  0  0  0  0  0  0  0  0
    0.7782   -1.4571    0.0000 C   0  0  0  0  0  0  0  0  0  0  0  0
    1.4927   -1.0446    0.0000 C   0  0  0  0  0  0  0  0  0  0  0  0
  1  5  1  0
  2  7  1  0
  3  4  2  0
  3  8  1  0
  4  5  1  0
  4  7  1  0
  5  6  2  0
  6  9  1  0
  8  9  2  0
M  END

> <chembl_id>
CHEMBL1367321

> <chembl_pref_name>
None

$$$$

     RDKit          2D

 10 10  0  0  0  0  0  0  0  0999 V2000
    9.3083  -18.5542    0.0000 C   0  0  0  0  0  0  0  0  0  0  0  0
   10.1333  -18.5542    0.0000 N   0  0  0  0  0  0  0  0  0  0  0  0
   10.3901  -17.7701    0.0000 C   0  0  0  0  0  0  0  0  0  0  0  0
    9.7208  -17.2833    0.0000 N   0  0  0  0  0  0  0  0  0  0  0  0
    9.0558  -17.7701    0.0000 C   0  0  0  0  0  0  0  0  0  0  0  0
   11.1751  -17.5162    0.0000 C   0  0  0  0  0  0  0  0  0  0  0  0
   10.6174  -19.2222    0.0000 C   0  0  0  0  0  0  0  0  0  0  0  0
    8.8231  -19.2228    0.0000 N   0  0  0  0  0  0  0  0  0  0  0  0
    9.1577  -19.9769    0.0000 O   0  0  0  0  0  0  0  0  0  0  0  0
    8.0027  -19.1355    0.0000 O   0  0  0  0  0  0  0  0  0  0  0  0
  5  1  2  0
  1  2  1  0
  3  6  1  0
  2  7  1  0
  2  3  1  0
  3  4  2  0
  4  5  1  0
  8  9  2  0
  8 10  1  0
  1  8  1  0
M  CHG  2   8   1  10  -1
M  END

> <chembl_id>
CHEMBL38938

> <chembl_pref_name>
DIMETRIDAZOLE

$$$$

     RDKit          2D

  9  9  0  0  0  0  0  0  0  0999 V2000
    0.5557    0.3208    0.0000 N   0  0  0  0  0  0  0  0  0  0  0  0
   -0.8732   -0.5042    0.0000 N   0  0  0  0  0  0  0  0  0  0  0  0
   -0.8732    0.3208    0.0000 N   0  0  0  0  0  0  0  0  0  0  0  0
   -0.1588    1.5583    0.0000 N   0  0  0  0  0  0  0  0  0  0  0  0
    0.5557   -0.5042    0.0000 C   0  0  0  0  0  0  0  0  0  0  0  0
   -0.1588   -0.9167    0.0000 C   0  0  0  0  0  0  0  0  0  0  0  0
   -0.1588    0.7333    0.0000 C   0  0  0  0  0  0  0  0  0  0  0  0
    1.2702   -0.9167    0.0000 C   0  0  0  0  0  0  0  0  0  0  0  0
   -0.1588   -1.7417    0.0000 C   0  0  0  0  0  0  0  0  0  0  0  0
  1  5  2  0
  1  7  1  0
  2  3  1  0
  2  6  2  0
  3  7  2  0
  4  7  1  0
  5  6  1  0
  5  8  1  0
  6  9  1  0
M  END

> <chembl_id>
CHEMBL1320279

> <chembl_pref_name>
None

$$$$

     RDKit          2D

 10 10  0  0  0  0  0  0  0  0999 V2000
   11.0275  -19.1316    0.0000 N   0  0  0  0  0  0  0  0  0  0  0  0
   11.0250  -19.9488    0.0000 C   0  0  0  0  0  0  0  0  0  0  0  0
   11.7328  -20.3597    0.0000 C   0  0  0  0  0  0  0  0  0  0  0  0
   11.7302  -21.1768    0.0000 C   0  0  0  0  0  0  0  0  0  0  0  0
   11.0198  -21.5832    0.0000 C   0  0  0  0  0  0  0  0  0  0  0  0
   10.3120  -21.1724    0.0000 N   0  0  0  0  0  0  0  0  0  0  0  0
   10.3146  -20.3552    0.0000 C   0  0  0  0  0  0  0  0  0  0  0  0
    9.6084  -19.9441    0.0000 O   0  0  0  0  0  0  0  0  0  0  0  0
    9.6113  -19.1269    0.0000 C   0  0  0  0  0  0  0  0  0  0  0  0
    8.9050  -18.7158    0.0000 C   0  0  0  0  0  0  0  0  0  0  0  0
  1  2  1  0
  2  3  1  0
  3  4  2  0
  4  5  1  0
  5  6  2  0
  6  7  1  0
  2  7  2  0
  7  8  1  0
  8  9  1  0
  9 10  1  0
M  END

> <chembl_id>
CHEMBL3277158

> <chembl_pref_name>
None

$$$$

     RDKit          2D

 10 10  0  0  0  0  0  0  0  0999 V2000
    6.0060   -2.7350    0.0000 C   0  0  0  0  0  0  0  0  0  0  0  0
    6.7195   -2.3195    0.0000 N   0  0  0  0  0  0  0  0  0  0  0  0
    7.4316   -1.9017    0.0000 N   0  0  0  0  0  0  0  0  0  0  0  0
    8.1448   -1.4847    0.0000 N   0  0  0  0  0  0  0  0  0  0  0  0
    5.2930   -2.3232    0.0000 C   0  0  0  0  0  0  0  0  0  0  0  0
    4.5799   -2.7380    0.0000 C   0  0  0  0  0  0  0  0  0  0  0  0
    4.5826   -3.5646    0.0000 C   0  0  0  0  0  0  0  0  0  0  0  0
    5.3043   -3.9746    0.0000 C   0  0  0  0  0  0  0  0  0  0  0  0
    6.0145   -3.5574    0.0000 C   0  0  0  0  0  0  0  0  0  0  0  0
    3.8628   -3.9852    0.0000 C   0  0  0  0  0  0  0  0  0  0  0  0
  1  2  1  0
  2  3  2  0
  3  4  2  0
  1  5  2  0
  5  6  1  0
  6  7  2  0
  7  8  1  0
  8  9  2  0
  9  1  1  0
  7 10  1  0
M  CHG  2   3   1   4  -1
M  END

> <chembl_id>
CHEMBL3236176

> <chembl_pref_name>
None

$$$$

     RDKit          2D

 10 10  0  0  0  0  0  0  0  0999 V2000
    6.1902    0.8604    0.0000 C   0  0  0  0  0  0  0  0  0  0  0  0
    6.1889    0.0340    0.0000 C   0  0  0  0  0  0  0  0  0  0  0  0
    6.9008   -0.3783    0.0000 C   0  0  0  0  0  0  0  0  0  0  0  0
    7.6190    0.0346    0.0000 C   0  0  0  0  0  0  0  0  0  0  0  0
    7.6158    0.8644    0.0000 C   0  0  0  0  0  0  0  0  0  0  0  0
    6.8988    1.2725    0.0000 C   0  0  0  0  0  0  0  0  0  0  0  0
    8.3328   -0.3766    0.0000 O   0  0  0  0  0  0  0  0  0  0  0  0
    6.8948    2.0962    0.0000 C   0  0  0  0  0  0  0  0  0  0  0  0
    7.6063    2.5115    0.0000 O   0  0  0  0  0  0  0  0  0  0  0  0
    5.4764    1.2716    0.0000 O   0  0  0  0  0  0  0  0  0  0  0  0
  2  3  1  0
  5  6  2  0
  6  1  1  0
  1  2  2  0
  4  7  1  0
  3  4  2  0
  6  8  1  0
  8  9  1  0
  4  5  1  0
  1 10  1  0
M  END

> <chembl_id>
CHEMBL448800

> <chembl_pref_name>
GENTISYL ALCOHOL

$$$$

     RDKit          2D

 12 12  0  0  0  0  0  0  0  0999 V2000
    0.7500   -1.0323    0.0000 C   0  0  0  0  0  0  0  0  0  0  0  0
    1.2135    0.3943    0.0000 N   0  0  0  0  0  0  0  0  0  0  0  0
    1.6307   -2.2444    0.0000 C   0  0  0  0  0  0  0  0  0  0  0  0
   -1.2135    0.3943    0.0000 N   0  0  0  0  0  0  0  0  0  0  0  0
    0.0000    1.2760    0.0000 C   0  0  0  0  0  0  0  0  0  0  0  0
   -0.7500   -1.0323    0.0000 C   0  0  0  0  0  0  0  0  0  0  0  0
    3.1234   -2.0885    0.0000 C   0  0  0  0  0  0  0  0  0  0  0  0
    3.8287   -3.0593    0.0000 N   0  0  0  0  0  0  0  0  0  0  0  0
    1.1422   -3.3405    0.0000 C   0  0  0  0  0  0  0  0  0  0  0  0
    3.6118   -0.9923    0.0000 C   0  0  0  0  0  0  0  0  0  0  0  0
    0.6361   -2.3488    0.0000 H   0  0  0  0  0  0  0  0  0  0  0  0
    4.1179   -1.9841    0.0000 H   0  0  0  0  0  0  0  0  0  0  0  0
  1  2  1  0
  1  3  1  0
  2  5  2  0
  4  5  1  0
  1  6  2  0
  4  6  1  0
  3  7  1  0
  7  8  1  0
  3  9  1  1
  7 10  1  1
  3 11  1  6
  7 12  1  6
M  END

> <chembl_id>
CHEMBL40378

> <chembl_pref_name>
None

$$$$

     RDKit          2D

 10 10  0  0  0  0  0  0  0  0999 V2000
    7.8961   -2.3750    0.0000 C   0  0  0  0  0  0  0  0  0  0  0  0
    7.8961   -3.2001    0.0000 C   0  0  0  0  0  0  0  0  0  0  0  0
    8.6081   -3.6085    0.0000 C   0  0  0  0  0  0  0  0  0  0  0  0
    9.3202   -3.2001    0.0000 C   0  0  0  0  0  0  0  0  0  0  0  0
    9.3202   -2.3750    0.0000 C   0  0  0  0  0  0  0  0  0  0  0  0
    8.6081   -1.9584    0.0000 N   0  0  0  0  0  0  0  0  0  0  0  0
   10.0359   -1.9647    0.0000 O   0  0  0  0  0  0  0  0  0  0  0  0
    7.1804   -1.9647    0.0000 O   0  0  0  0  0  0  0  0  0  0  0  0
    7.1822   -3.6136    0.0000 C   0  0  0  0  0  0  0  0  0  0  0  0
    6.4715   -4.0266    0.0000 N   0  0  0  0  0  0  0  0  0  0  0  0
  1  2  1  0
  1  6  1  0
  2  3  2  0
  3  4  1  0
  4  5  2  0
  5  6  1  0
  5  7  1  0
  1  8  2  0
  2  9  1  0
  9 10  3  0
M  END

> <chembl_id>
CHEMBL3086508

> <chembl_pref_name>
None

$$$$

     RDKit          2D

  9  9  0  0  0  0  0  0  0  0999 V2000
    0.1756   -0.9092    0.0000 C   0  0  0  0  0  0  0  0  0  0  0  0
   -0.5389   -0.4967    0.0000 C   0  0  0  0  0  0  0  0  0  0  0  0
   -0.5389    0.3283    0.0000 C   0  0  0  0  0  0  0  0  0  0  0  0
   -1.2533    0.7408    0.0000 O   0  0  0  0  0  0  0  0  0  0  0  0
    0.1756    0.7408    0.0000 C   0  0  0  0  0  0  0  0  0  0  0  0
    0.1756    1.5658    0.0000 O   0  0  0  0  0  0  0  0  0  0  0  0
    0.8901    0.3283    0.0000 C   0  0  0  0  0  0  0  0  0  0  0  0
    0.8901   -0.4967    0.0000 C   0  0  0  0  0  0  0  0  0  0  0  0
    0.1756   -1.7342    0.0000 C   0  0  0  0  0  0  0  0  0  0  0  0
  1  2  2  0
  1  8  1  0
  9  1  1  0
  2  3  1  0
  3  4  1  0
  3  5  2  0
  5  6  1  0
  5  7  1  0
  7  8  2  0
M  END

> <chembl_id>
CHEMBL158766

> <chembl_pref_name>
None

$$$$

     RDKit          2D

  9  9  0  0  0  0  0  0  0  0999 V2000
    3.3375   -1.8917    0.0000 N   0  0  0  0  0  0  0  0  0  0  0  0
    6.1875   -2.4250    0.0000 C   0  0  0  0  0  0  0  0  0  0  0  0
    6.9785   -2.1739    0.0000 C   0  0  0  0  0  0  0  0  0  0  0  0
    2.9250   -3.1625    0.0000 N   0  0  0  0  0  0  0  0  0  0  0  0
    2.6750   -2.3750    0.0000 C   0  0  0  0  0  0  0  0  0  0  0  0
    4.0042   -2.3750    0.0000 C   0  0  0  0  0  0  0  0  0  0  0  0
    3.7500   -3.1625    0.0000 C   0  0  0  0  0  0  0  0  0  0  0  0
    5.4000   -2.6750    0.0000 C   0  0  0  0  0  0  0  0  0  0  0  0
    4.7917   -2.1250    0.0000 C   0  0  0  0  0  0  0  0  0  0  0  0
  2  8  1  0
  3  2  3  0
  4  5  1  0
  5  1  2  0
  6  1  1  0
  7  6  2  0
  8  9  1  0
  9  6  1  0
  7  4  1  0
M  END

> <chembl_id>
CHEMBL170104

> <chembl_pref_name>
None

$$$$

     RDKit          2D

  9  9  0  0  0  0  0  0  0  0999 V2000
    1.2702   -0.8983    0.0000 O   0  0  0  0  0  0  0  0  0  0  0  0
   -0.1588    1.5767    0.0000 N   0  0  0  0  0  0  0  0  0  0  0  0
    0.5557   -0.4858    0.0000 C   0  0  0  0  0  0  0  0  0  0  0  0
   -0.1588   -0.8983    0.0000 C   0  0  0  0  0  0  0  0  0  0  0  0
   -0.1588    0.7517    0.0000 C   0  0  0  0  0  0  0  0  0  0  0  0
    0.5557    0.3392    0.0000 C   0  0  0  0  0  0  0  0  0  0  0  0
   -0.8732   -0.4858    0.0000 C   0  0  0  0  0  0  0  0  0  0  0  0
   -0.8732    0.3392    0.0000 C   0  0  0  0  0  0  0  0  0  0  0  0
   -0.1588   -1.7233    0.0000 C   0  0  0  0  0  0  0  0  0  0  0  0
  1  3  1  0
  2  5  1  0
  3  4  1  0
  3  6  2  0
  4  7  2  0
  4  9  1  0
  5  6  1  0
  5  8  2  0
  7  8  1  0
M  END

> <chembl_id>
CHEMBL1446372

> <chembl_pref_name>
None

$$$$

     RDKit          2D

  9  9  0  0  0  0  0  0  0  0999 V2000
    5.5625   -1.9625    0.0000 N   0  0  0  0  0  0  0  0  0  0  0  0
    6.3875   -1.9625    0.0000 C   0  0  0  0  0  0  0  0  0  0  0  0
    6.6443   -1.1784    0.0000 C   0  0  0  0  0  0  0  0  0  0  0  0
    5.9750   -0.6917    0.0000 N   0  0  0  0  0  0  0  0  0  0  0  0
    5.3099   -1.1784    0.0000 C   0  0  0  0  0  0  0  0  0  0  0  0
    7.4292   -0.9246    0.0000 C   0  0  0  0  0  0  0  0  0  0  0  0
    8.0416   -1.4774    0.0000 C   0  0  0  0  0  0  0  0  0  0  0  0
    8.8265   -1.2236    0.0000 C   0  0  0  0  0  0  0  0  0  0  0  0
    9.4389   -1.7765    0.0000 C   0  0  0  0  0  0  0  0  0  0  0  0
  4  5  2  0
  5  1  1  0
  1  2  1  0
  3  6  1  0
  6  7  1  0
  2  3  2  0
  7  8  1  0
  3  4  1  0
  8  9  1  0
M  END

> <chembl_id>
CHEMBL453433

> <chembl_pref_name>
None

$$$$

     RDKit          2D

  9  9  0  0  0  0  0  0  0  0999 V2000
    0.7132    2.1543    0.0000 O   0  0  0  0  0  0  0  0  0  0  0  0
    0.7132    1.3293    0.0000 N   0  0  0  0  0  0  0  0  0  0  0  0
    1.4276    0.0919    0.0000 C   0  0  0  0  0  0  0  0  0  0  0  0
    2.1421   -0.3206    0.0000 C   0  0  0  0  0  0  0  0  0  0  0  0
    0.7132   -0.3207    0.0000 C   0  0  0  0  0  0  0  0  0  0  0  0
    1.4276    0.9169    0.0000 C   0  0  0  0  0  0  0  0  0  0  0  0
    2.1421   -1.1456    0.0000 C   0  0  0  0  0  0  0  0  0  0  0  0
    0.7132   -1.1457    0.0000 C   0  0  0  0  0  0  0  0  0  0  0  0
    1.4276   -1.5581    0.0000 C   0  0  0  0  0  0  0  0  0  0  0  0
  1  2  1  0
  2  6  1  0
  3  4  2  0
  3  5  1  0
  3  6  1  0
  4  7  1  0
  5  8  2  0
  7  9  2  0
  8  9  1  0
M  END

> <chembl_id>
CHEMBL1441489

> <chembl_pref_name>
None

$$$$

     RDKit          2D

 10 11  0  0  0  0  0  0  0  0999 V2000
    4.3542   -1.7667    0.0000 N   0  0  0  0  0  0  0  0  0  0  0  0
    5.1500   -1.3500    0.0000 C   0  0  0  0  0  0  0  0  0  0  0  0
    3.6417   -1.3542    0.0000 C   0  0  0  0  0  0  0  0  0  0  0  0
    5.0750   -0.5292    0.0000 C   0  0  0  0  0  0  0  0  0  0  0  0
    4.3667   -0.1250    0.0000 C   0  0  0  0  0  0  0  0  0  0  0  0
    2.9292   -1.7625    0.0000 N   0  0  0  0  0  0  0  0  0  0  0  0
    3.6417   -0.5292    0.0000 C   0  0  0  0  0  0  0  0  0  0  0  0
    5.9542   -1.5292    0.0000 C   0  0  0  0  0  0  0  0  0  0  0  0
    6.3792   -0.8167    0.0000 C   0  0  0  0  0  0  0  0  0  0  0  0
    5.8292   -0.2042    0.0000 C   0  0  0  0  0  0  0  0  0  0  0  0
  2  1  2  0
  3  1  1  0
  4  2  1  0
  5  7  1  0
  6  3  1  0
  7  3  2  0
  8  2  1  0
  9  8  1  0
 10  4  1  0
  4  5  2  0
  9 10  1  0
M  END

> <chembl_id>
CHEMBL292690

> <chembl_pref_name>
None

$$$$

     RDKit          2D

  9  9  0  0  0  0  0  0  0  0999 V2000
    0.0948    0.4302    0.0000 O   0  0  0  0  0  0  0  0  0  0  0  0
   -0.9851   -0.3544    0.0000 N   0  0  0  0  0  0  0  0  0  0  0  0
   -1.2401    0.4302    0.0000 N   0  0  0  0  0  0  0  0  0  0  0  0
   -0.5726    1.7401    0.0000 N   0  0  0  0  0  0  0  0  0  0  0  0
    1.9658   -0.8494    0.0000 N   0  0  0  0  0  0  0  0  0  0  0  0
   -0.1601   -0.3544    0.0000 C   0  0  0  0  0  0  0  0  0  0  0  0
   -0.5726    0.9151    0.0000 C   0  0  0  0  0  0  0  0  0  0  0  0
    0.3248   -1.0219    0.0000 C   0  0  0  0  0  0  0  0  0  0  0  0
    1.1453   -0.9356    0.0000 C   0  0  0  0  0  0  0  0  0  0  0  0
  1  6  1  0
  1  7  1  0
  2  3  1  0
  2  6  2  0
  3  7  2  0
  4  7  1  0
  5  9  3  0
  6  8  1  0
  8  9  1  0
M  END

> <chembl_id>
CHEMBL1986256

> <chembl_pref_name>
None

$$$$

     RDKit          2D

  8  8  0  0  0  0  0  0  0  0999 V2000
    2.3383   -1.3500    0.0000 O   0  0  0  0  0  0  0  0  0  0  0  0
    1.2990   -0.7500    0.0000 C   0  0  0  0  0  0  0  0  0  0  0  0
    1.2990    0.7500    0.0000 C   0  0  0  0  0  0  0  0  0  0  0  0
    0.0000    1.5000    0.0000 C   0  0  0  0  0  0  0  0  0  0  0  0
   -1.2990    0.7500    0.0000 C   0  0  0  0  0  0  0  0  0  0  0  0
   -1.2990   -0.7500    0.0000 N   0  0  0  0  0  0  0  0  0  0  0  0
    0.0000   -1.5000    0.0000 C   0  0  0  0  0  0  0  0  0  0  0  0
    0.0000   -2.7000    0.0000 S   0  0  0  0  0  0  0  0  0  0  0  0
  1  2  1  0
  2  3  2  0
  3  4  1  0
  4  5  2  0
  5  6  1  0
  6  7  1  0
  7  2  1  0
  7  8  2  0
M  END

> <chembl_id>
CHEMBL2337874

> <chembl_pref_name>
None

$$$$

     RDKit          2D

 10 10  0  0  0  0  0  0  0  0999 V2000
   -0.0455   -1.7353    0.0000 N   0  0  0  0  0  0  0  0  0  0  0  0
    1.2894   -1.7353    0.0000 N   0  0  0  0  0  0  0  0  0  0  0  0
    0.6219   -1.2504    0.0000 C   0  0  0  0  0  0  0  0  0  0  0  0
    0.6219   -0.4254    0.0000 C   0  0  0  0  0  0  0  0  0  0  0  0
    0.2094   -2.5199    0.0000 C   0  0  0  0  0  0  0  0  0  0  0  0
    1.0344   -2.5199    0.0000 C   0  0  0  0  0  0  0  0  0  0  0  0
    1.3364   -0.0129    0.0000 C   0  0  0  0  0  0  0  0  0  0  0  0
   -0.0925   -0.0129    0.0000 C   0  0  0  0  0  0  0  0  0  0  0  0
    1.3364    0.8121    0.0000 C   0  0  0  0  0  0  0  0  0  0  0  0
   -0.0925    0.8121    0.0000 C   0  0  0  0  0  0  0  0  0  0  0  0
  1  3  2  0
  1  5  1  0
  2  3  1  0
  2  6  1  0
  3  4  1  0
  4  7  1  0
  4  8  1  0
  5  6  2  0
  7  9  1  0
  8 10  1  0
M  END

> <chembl_id>
CHEMBL1567276

> <chembl_pref_name>
None

$$$$

     RDKit          2D

  9  9  0  0  0  0  0  0  0  0999 V2000
    1.9022  -14.3244    0.0000 N   0  0  0  0  0  0  0  0  0  0  0  0
    1.9123  -15.1493    0.0000 C   0  0  0  0  0  0  0  0  0  0  0  0
    2.6320  -15.5553    0.0000 C   0  0  0  0  0  0  0  0  0  0  0  0
    2.6421  -16.3803    0.0000 C   0  0  0  0  0  0  0  0  0  0  0  0
    1.9324  -16.7992    0.0000 C   0  0  0  0  0  0  0  0  0  0  0  0
    1.2127  -16.3977    0.0000 C   0  0  0  0  0  0  0  0  0  0  0  0
    1.2027  -15.5728    0.0000 C   0  0  0  0  0  0  0  0  0  0  0  0
    2.6119  -13.9054    0.0000 C   0  0  0  0  0  0  0  0  0  0  0  0
    2.6018  -13.0804    0.0000 C   0  0  0  0  0  0  0  0  0  0  0  0
  1  2  1  0
  2  3  1  0
  3  4  2  0
  4  5  1  0
  5  6  2  0
  6  7  1  0
  2  7  2  0
  8  9  1  0
  1  8  1  0
M  END

> <chembl_id>
CHEMBL455541

> <chembl_pref_name>
None

$$$$

     RDKit          2D

  9  9  0  0  0  0  0  0  0  0999 V2000
    2.4542    1.0458    0.0000 C   0  0  0  0  0  0  0  0  0  0  0  0
    0.8000    1.0708    0.0000 C   0  0  0  0  0  0  0  0  0  0  0  0
    1.2167    1.7833    0.0000 C   0  0  0  0  0  0  0  0  0  0  0  0
    1.2042    0.3583    0.0000 C   0  0  0  0  0  0  0  0  0  0  0  0
    2.0292    0.3375    0.0000 C   0  0  0  0  0  0  0  0  0  0  0  0
    2.0542    1.7708    0.0000 C   0  0  0  0  0  0  0  0  0  0  0  0
    3.6792    0.3208    0.0000 O   0  0  0  0  0  0  0  0  0  0  0  0
    3.2792    1.0375    0.0000 C   0  0  0  0  0  0  0  0  0  0  0  0
   -0.0208    1.0833    0.0000 C   0  0  0  0  0  0  0  0  0  0  0  0
  2  3  2  0
  3  6  1  0
  4  5  2  0
  5  1  1  0
  6  1  2  0
  7  8  1  0
  8  1  1  0
  9  2  1  0
  4  2  1  0
M  END

> <chembl_id>
CHEMBL90100

> <chembl_pref_name>
None

$$$$

     RDKit          2D

 10 10  0  0  0  0  0  0  0  0999 V2000
    6.2379   -2.4019    0.0000 N   0  0  0  0  0  0  0  0  0  0  0  0
    5.1983   -3.0012    0.0000 C   0  0  0  0  0  0  0  0  0  0  0  0
    3.8985   -2.2508    0.0000 C   0  0  0  0  0  0  0  0  0  0  0  0
    2.5988   -1.5004    0.0000 C   0  0  0  0  0  0  0  0  0  0  0  0
    1.2990   -0.7500    0.0000 C   0  0  0  0  0  0  0  0  0  0  0  0
    1.2990    0.7500    0.0000 C   0  0  0  0  0  0  0  0  0  0  0  0
    0.0000    1.5000    0.0000 C   0  0  0  0  0  0  0  0  0  0  0  0
   -1.2990    0.7500    0.0000 C   0  0  0  0  0  0  0  0  0  0  0  0
   -1.2990   -0.7500    0.0000 C   0  0  0  0  0  0  0  0  0  0  0  0
    0.0000   -1.5000    0.0000 C   0  0  0  0  0  0  0  0  0  0  0  0
  1  2  1  0
  2  3  1  0
  3  4  3  0
  4  5  1  0
  5  6  2  0
  6  7  1  0
  7  8  2  0
  8  9  1  0
  9 10  2  0
 10  5  1  0
M  END

> <chembl_id>
CHEMBL110611

> <chembl_pref_name>
None

$$$$

     RDKit          2D

 10 10  0  0  0  0  0  0  0  0999 V2000
   13.1981   -2.2816    0.0000 C   0  0  0  0  0  0  0  0  0  0  0  0
   12.4930   -1.8579    0.0000 C   0  0  0  0  0  0  0  0  0  0  0  0
   12.5059   -1.0330    0.0000 C   0  0  0  0  0  0  0  0  0  0  0  0
   13.2241   -0.6318    0.0000 C   0  0  0  0  0  0  0  0  0  0  0  0
   13.9333   -1.0555    0.0000 C   0  0  0  0  0  0  0  0  0  0  0  0
   13.9203   -1.8804    0.0000 C   0  0  0  0  0  0  0  0  0  0  0  0
   13.1851   -3.1065    0.0000 O   0  0  0  0  0  0  0  0  0  0  0  0
   13.2370    0.1931    0.0000 O   0  0  0  0  0  0  0  0  0  0  0  0
   11.7967   -0.6093    0.0000 C   0  0  0  0  0  0  0  0  0  0  0  0
   11.7707   -2.2591    0.0000 C   0  0  0  0  0  0  0  0  0  0  0  0
  1  2  1  0
  2  3  2  0
  3  4  1  0
  4  5  2  0
  5  6  1  0
  1  6  2  0
  1  7  1  0
  4  8  1  0
  3  9  1  0
  2 10  1  0
M  END

> <chembl_id>
CHEMBL1269256

> <chembl_pref_name>
None

$$$$

     RDKit          2D

  9  9  0  0  0  0  0  0  0  0999 V2000
    5.5482   -3.8518    0.0000 S   0  0  0  0  0  0  0  0  0  0  0  0
    5.6495   -3.0351    0.0000 C   0  0  0  0  0  0  0  0  0  0  0  0
    4.9029   -2.6842    0.0000 C   0  0  0  0  0  0  0  0  0  0  0  0
    4.3446   -3.2886    0.0000 C   0  0  0  0  0  0  0  0  0  0  0  0
    4.7440   -4.0083    0.0000 C   0  0  0  0  0  0  0  0  0  0  0  0
    6.3731   -2.6332    0.0000 C   0  0  0  0  0  0  0  0  0  0  0  0
    7.0815   -3.0616    0.0000 C   0  0  0  0  0  0  0  0  0  0  0  0
    7.8051   -2.6598    0.0000 C   0  0  0  0  0  0  0  0  0  0  0  0
    7.0662   -3.8877    0.0000 N   0  0  0  0  0  0  0  0  0  0  0  0
  2  3  2  0
  1  2  1  0
  3  4  1  0
  4  5  2  0
  5  1  1  0
  2  6  1  0
  6  7  1  0
  7  8  1  0
  7  9  1  0
M  END

> <chembl_id>
CHEMBL95500

> <chembl_pref_name>
None

$$$$

     RDKit          2D

 10 11  0  0  0  0  0  0  0  0999 V2000
   -1.8239    0.0025    0.0000 S   0  0  0  0  0  0  0  0  0  0  0  0
   -0.5140   -0.6650    0.0000 N   0  0  0  0  0  0  0  0  0  0  0  0
    0.2707   -0.4100    0.0000 C   0  0  0  0  0  0  0  0  0  0  0  0
    0.2707    0.4150    0.0000 C   0  0  0  0  0  0  0  0  0  0  0  0
   -0.9989    0.0025    0.0000 C   0  0  0  0  0  0  0  0  0  0  0  0
   -0.5140    0.6699    0.0000 C   0  0  0  0  0  0  0  0  0  0  0  0
    0.9851   -0.8225    0.0000 C   0  0  0  0  0  0  0  0  0  0  0  0
    0.9851    0.8275    0.0000 C   0  0  0  0  0  0  0  0  0  0  0  0
    1.6996   -0.4100    0.0000 C   0  0  0  0  0  0  0  0  0  0  0  0
    1.6996    0.4150    0.0000 C   0  0  0  0  0  0  0  0  0  0  0  0
  1  5  1  0
  2  3  1  0
  2  5  2  0
  3  4  1  0
  3  7  2  0
  4  6  1  0
  4  8  2  0
  5  6  1  0
  7  9  1  0
  8 10  1  0
  9 10  2  0
M  END

> <chembl_id>
CHEMBL1345979

> <chembl_pref_name>
None

$$$$

     RDKit          2D

 10 10  0  0  0  0  0  0  0  0999 V2000
    3.8205   -7.0562    0.0000 C   0  0  0  0  0  0  0  0  0  0  0  0
    3.8205   -6.0562    0.0000 C   0  0  0  0  0  0  0  0  0  0  0  0
    2.9544   -5.5562    0.0000 O   0  0  0  0  0  0  0  0  0  0  0  0
    2.9544   -4.5562    0.0000 C   0  0  0  0  0  0  0  0  0  0  0  0
    2.0870   -4.0586    0.0000 C   0  0  0  0  0  0  0  0  0  0  0  0
    2.0870   -3.0535    0.0000 C   0  0  0  0  0  0  0  0  0  0  0  0
    2.9544   -2.5460    0.0000 N   0  0  0  0  0  0  0  0  0  0  0  0
    3.8218   -3.0535    0.0000 C   0  0  0  0  0  0  0  0  0  0  0  0
    4.6893   -2.5560    0.0000 O   0  0  0  0  0  0  0  0  0  0  0  0
    3.8218   -4.0586    0.0000 N   0  0  0  0  0  0  0  0  0  0  0  0
  1  2  1  0
  2  3  1  0
  3  4  1  0
  4 10  2  0
  4  5  1  0
  5  6  2  0
  6  7  1  0
  7  8  1  0
  8  9  2  0
  8 10  1  0
M  END

> <chembl_id>
CHEMBL581502

> <chembl_pref_name>
None

$$$$

     RDKit          2D

 10 10  0  0  0  0  0  0  0  0999 V2000
    2.1417   -2.7875    0.0000 N   0  0  0  0  0  0  0  0  0  0  0  0
    1.0667   -1.8375    0.0000 C   0  0  0  0  0  0  0  0  0  0  0  0
   -2.7083   -1.8167    0.0000 N   0  0  0  0  0  0  0  0  0  0  0  0
   -0.2833   -2.3042    0.0000 C   0  0  0  0  0  0  0  0  0  0  0  0
    3.5000   -2.3292    0.0000 C   0  0  0  0  0  0  0  0  0  0  0  0
   -1.3500   -1.3542    0.0000 C   0  0  0  0  0  0  0  0  0  0  0  0
   -3.7875   -0.8667    0.0000 C   0  0  0  0  0  0  0  0  0  0  0  0
    1.3417   -0.4292    0.0000 C   0  0  0  0  0  0  0  0  0  0  0  0
    3.7792   -0.9167    0.0000 C   0  0  0  0  0  0  0  0  0  0  0  0
    2.7000    0.0125    0.0000 C   0  0  0  0  0  0  0  0  0  0  0  0
  2  1  2  0
  3  6  1  0
  4  2  1  0
  5  1  1  0
  6  4  1  0
  7  3  1  0
  8  2  1  0
  9  5  2  0
 10  9  1  0
  8 10  2  0
M  END

> <chembl_id>
CHEMBL24441

> <chembl_pref_name>
BETAHISTINE

$$$$

     RDKit          2D

 11 11  0  0  0  0  0  0  0  0999 V2000
    4.5881   -3.3884    0.0000 C   0  0  0  0  0  0  0  0  0  0  0  0
    4.5869   -4.2080    0.0000 C   0  0  0  0  0  0  0  0  0  0  0  0
    5.2950   -4.6169    0.0000 C   0  0  0  0  0  0  0  0  0  0  0  0
    6.0046   -4.2075    0.0000 C   0  0  0  0  0  0  0  0  0  0  0  0
    6.0018   -3.3848    0.0000 C   0  0  0  0  0  0  0  0  0  0  0  0
    5.2932   -2.9796    0.0000 C   0  0  0  0  0  0  0  0  0  0  0  0
    5.2907   -2.1624    0.0000 N   0  0  0  0  0  0  0  0  0  0  0  0
    5.2948   -5.4341    0.0000 C   0  0  0  0  0  0  0  0  0  0  0  0
    5.2975   -6.2473    0.0000 N   0  0  0  0  0  0  0  0  0  0  0  0
    5.9972   -1.7517    0.0000 C   0  0  0  0  0  0  0  0  0  0  0  0
    5.9948   -0.9393    0.0000 O   0  0  0  0  0  0  0  0  0  0  0  0
  1  2  2  0
  2  3  1  0
  3  4  2  0
  4  5  1  0
  5  6  2  0
  6  1  1  0
  6  7  1  0
  3  8  1  0
  8  9  3  0
  7 10  1  0
 10 11  2  0
M  END

> <chembl_id>
CHEMBL3252137

> <chembl_pref_name>
None

$$$$

     RDKit          2D

  8  8  0  0  0  0  0  0  0  0999 V2000
   -0.5032   -0.5156    0.0000 C   0  0  0  0  0  0  0  0  0  0  0  0
   -0.5032    0.3094    0.0000 C   0  0  0  0  0  0  0  0  0  0  0  0
    0.2113    0.7219    0.0000 C   0  0  0  0  0  0  0  0  0  0  0  0
    0.9258    0.3094    0.0000 C   0  0  0  0  0  0  0  0  0  0  0  0
    0.9258   -0.5156    0.0000 C   0  0  0  0  0  0  0  0  0  0  0  0
    0.2113   -0.9281    0.0000 C   0  0  0  0  0  0  0  0  0  0  0  0
   -1.2176   -0.9281    0.0000 O   0  0  0  0  0  0  0  0  0  0  0  0
    0.2113    1.5469    0.0000 O   0  0  0  0  0  0  0  0  0  0  0  0
  1  2  2  0
  1  6  1  0
  1  7  1  0
  2  3  1  0
  3  4  2  0
  3  8  1  0
  4  5  1  0
  5  6  2  0
M  END

> <chembl_id>
CHEMBL24147

> <chembl_pref_name>
RESORCINOL

$$$$

     RDKit          2D

 11 11  0  0  0  0  0  0  0  0999 V2000
    2.4000   -3.3375    0.0000 C   0  0  0  0  0  0  0  0  0  0  0  0
    3.4292   -2.7292    0.0000 N   0  0  0  0  0  0  0  0  0  0  0  0
    2.4000   -4.5375    0.0000 N   0  0  0  0  0  0  0  0  0  0  0  0
    2.9167   -3.0375    0.0000 C   0  0  0  0  0  0  0  0  0  0  0  0
    2.4042   -3.9375    0.0000 C   0  0  0  0  0  0  0  0  0  0  0  0
    1.3625   -3.3417    0.0000 C   0  0  0  0  0  0  0  0  0  0  0  0
    1.8792   -3.0417    0.0000 C   0  0  0  0  0  0  0  0  0  0  0  0
    1.2292   -3.9292    0.0000 N   0  0  0  0  0  0  0  0  0  0  0  0
    0.6375   -3.9875    0.0000 C   0  0  0  0  0  0  0  0  0  0  0  0
    0.8417   -3.0375    0.0000 C   0  0  0  0  0  0  0  0  0  0  0  0
    0.3917   -3.4292    0.0000 C   0  0  0  0  0  0  0  0  0  0  0  0
  2  4  3  0
  3  5  3  0
  4  1  1  0
  5  1  1  0
  6  7  1  0
  7  1  2  0
  8  6  1  0
  9  8  1  0
 10  6  2  0
 11 10  1  0
 11  9  2  0
M  END

> <chembl_id>
CHEMBL310514

> <chembl_pref_name>
None

$$$$

     RDKit          2D

 10 10  0  0  0  0  0  0  0  0999 V2000
    2.3839   -2.3221    0.0000 C   0  0  0  0  0  0  0  0  0  0  0  0
    3.1214   -1.9790    0.0000 C   0  0  0  0  0  0  0  0  0  0  0  0
    3.8558   -2.3417    0.0000 C   0  0  0  0  0  0  0  0  0  0  0  0
    2.1929   -3.1186    0.0000 C   0  0  0  0  0  0  0  0  0  0  0  0
    4.0324   -3.1382    0.0000 C   0  0  0  0  0  0  0  0  0  0  0  0
    2.6970   -3.7636    0.0000 C   0  0  0  0  0  0  0  0  0  0  0  0
    3.5151   -3.7694    0.0000 C   0  0  0  0  0  0  0  0  0  0  0  0
    4.8273   -3.3279    0.0000 O   0  0  0  0  0  0  0  0  0  0  0  0
    3.8621   -4.5092    0.0000 O   0  0  0  0  0  0  0  0  0  0  0  0
    1.7512   -1.8049    0.0000 O   0  0  0  0  0  0  0  0  0  0  0  0
  1  2  1  0
  2  3  2  0
  1  4  2  0
  3  5  1  0
  4  6  1  0
  5  7  1  0
  6  7  2  0
  5  8  2  0
  7  9  1  0
  1 10  1  0
M  END

> <chembl_id>
CHEMBL2261444

> <chembl_pref_name>
None

$$$$

     RDKit          2D

  9  9  0  0  0  0  0  0  0  0999 V2000
   10.6174    1.0078    0.0000 C   0  0  0  0  0  0  0  0  0  0  0  0
   10.6162    0.1809    0.0000 C   0  0  0  0  0  0  0  0  0  0  0  0
   11.3305   -0.2318    0.0000 C   0  0  0  0  0  0  0  0  0  0  0  0
   12.0466    0.1814    0.0000 C   0  0  0  0  0  0  0  0  0  0  0  0
   12.0437    1.0114    0.0000 C   0  0  0  0  0  0  0  0  0  0  0  0
   11.3287    1.4203    0.0000 N   0  0  0  0  0  0  0  0  0  0  0  0
   12.7613   -0.2298    0.0000 C   0  0  0  0  0  0  0  0  0  0  0  0
   12.7626   -1.0543    0.0000 C   0  0  0  0  0  0  0  0  0  0  0  0
    9.9032    1.4199    0.0000 C   0  0  0  0  0  0  0  0  0  0  0  0
  4  5  1  0
  2  3  1  0
  5  6  2  0
  6  1  1  0
  1  2  2  0
  4  7  1  0
  3  4  2  0
  7  8  1  0
  1  9  1  0
M  END

> <chembl_id>
CHEMBL227181

> <chembl_pref_name>
None

$$$$

     RDKit          2D

 11 11  0  0  0  0  0  0  0  0999 V2000
    0.9375   -1.5417    0.0000 C   0  0  0  0  0  0  0  0  0  0  0  0
    1.6542   -1.9500    0.0000 C   0  0  0  0  0  0  0  0  0  0  0  0
    0.9292   -0.7167    0.0000 O   0  0  0  0  0  0  0  0  0  0  0  0
    0.2250   -1.9542    0.0000 C   0  0  0  0  0  0  0  0  0  0  0  0
    1.6542   -2.7750    0.0000 O   0  0  0  0  0  0  0  0  0  0  0  0
    2.3667   -1.5375    0.0000 C   0  0  0  0  0  0  0  0  0  0  0  0
   -0.4958   -1.5417    0.0000 C   0  0  0  0  0  0  0  0  0  0  0  0
    0.2250   -2.7875    0.0000 C   0  0  0  0  0  0  0  0  0  0  0  0
   -1.2083   -1.9625    0.0000 C   0  0  0  0  0  0  0  0  0  0  0  0
   -0.4958   -3.2000    0.0000 C   0  0  0  0  0  0  0  0  0  0  0  0
   -1.2083   -2.7875    0.0000 C   0  0  0  0  0  0  0  0  0  0  0  0
  2  1  1  0
  3  1  2  0
  4  1  1  0
  5  2  2  0
  6  2  1  0
  7  4  2  0
  8  4  1  0
  9  7  1  0
 10  8  2  0
 11 10  1  0
  9 11  2  0
M  END

> <chembl_id>
CHEMBL192258

> <chembl_pref_name>
None

$$$$

     RDKit          2D

  6  6  0  0  0  0  0  0  0  0999 V2000
    1.6417   -2.6542    0.0000 C   0  0  0  0  0  0  0  0  0  0  0  0
    1.4542   -3.2292    0.0000 N   0  0  0  0  0  0  0  0  0  0  0  0
    1.1542   -2.3042    0.0000 N   0  0  0  0  0  0  0  0  0  0  0  0
    0.8500   -3.2292    0.0000 C   0  0  0  0  0  0  0  0  0  0  0  0
    0.6667   -2.6542    0.0000 C   0  0  0  0  0  0  0  0  0  0  0  0
    2.2125   -2.4750    0.0000 Cl  0  0  0  0  0  0  0  0  0  0  0  0
  2  1  2  0
  3  1  1  0
  4  2  1  0
  5  3  1  0
  6  1  1  0
  4  5  2  0
M  END

> <chembl_id>
CHEMBL64560

> <chembl_pref_name>
None

$$$$

     RDKit          2D

 11 11  0  0  0  0  0  0  0  0999 V2000
    4.2569   -8.8791    0.0000 C   0  0  0  0  0  0  0  0  0  0  0  0
    4.2557   -9.7065    0.0000 C   0  0  0  0  0  0  0  0  0  0  0  0
    4.9706  -10.1194    0.0000 N   0  0  0  0  0  0  0  0  0  0  0  0
    5.6870   -9.7060    0.0000 C   0  0  0  0  0  0  0  0  0  0  0  0
    5.6841   -8.8755    0.0000 C   0  0  0  0  0  0  0  0  0  0  0  0
    4.9688   -8.4664    0.0000 C   0  0  0  0  0  0  0  0  0  0  0  0
    6.3971   -8.4603    0.0000 C   0  0  0  0  0  0  0  0  0  0  0  0
    7.1131   -8.8701    0.0000 C   0  0  0  0  0  0  0  0  0  0  0  0
    7.8260   -8.4549    0.0000 C   0  0  0  0  0  0  0  0  0  0  0  0
    8.5420   -8.8647    0.0000 N   0  0  0  0  0  0  0  0  0  0  0  0
    7.8229   -7.6299    0.0000 O   0  0  0  0  0  0  0  0  0  0  0  0
  5  6  2  0
  6  1  1  0
  1  2  2  0
  5  7  1  0
  3  4  2  0
  7  8  2  0
  8  9  1  0
  4  5  1  0
  9 10  1  0
  2  3  1  0
  9 11  2  0
M  END

> <chembl_id>
CHEMBL2064701

> <chembl_pref_name>
None

$$$$

     RDKit          2D

 12 14  0  0  1  0  0  0  0  0999 V2000
    3.3292   -3.9792    0.0000 C   0  0  0  0  0  0  0  0  0  0  0  0
    4.1167   -4.2167    0.0000 N   0  0  0  0  0  0  0  0  0  0  0  0
    2.6542   -4.4542    0.0000 C   0  0  0  0  0  0  0  0  0  0  0  0
    2.8042   -3.6417    0.0000 C   0  0  0  0  0  0  0  0  0  0  0  0
    3.6875   -3.0792    0.0000 C   0  0  0  0  0  0  0  0  0  0  0  0
    3.2417   -2.4292    0.0000 C   0  0  0  0  0  0  0  0  0  0  0  0
    4.1792   -3.3000    0.0000 C   0  0  0  0  0  0  0  0  0  0  0  0
    2.1667   -3.1042    0.0000 C   0  0  0  0  0  0  0  0  0  0  0  0
    1.8792   -4.7292    0.0000 C   0  0  0  0  0  0  0  0  0  0  0  0
    1.2542   -4.2042    0.0000 C   0  0  0  0  0  0  0  0  0  0  0  0
    1.3917   -3.3917    0.0000 C   0  0  0  0  0  0  0  0  0  0  0  0
    3.4887   -4.9664    0.0000 H   0  0  0  0  0  0  0  0  0  0  0  0
  1  2  1  0
  3  1  1  0
  4  3  2  0
  5  6  1  0
  1  6  1  0
  7  2  1  0
  8  4  1  0
  9  3  1  0
 10  9  2  0
 11 10  1  0
  5  4  1  0
  7  5  1  0
 11  8  2  0
  1 12  1  6
M  END

> <chembl_id>
CHEMBL140069

> <chembl_pref_name>
None

$$$$

     RDKit          2D

 10 10  0  0  0  0  0  0  0  0999 V2000
   -3.8928  -19.6860    0.0000 C   0  0  0  0  0  0  0  0  0  0  0  0
   -3.8940  -20.5133    0.0000 C   0  0  0  0  0  0  0  0  0  0  0  0
   -3.1792  -20.9261    0.0000 C   0  0  0  0  0  0  0  0  0  0  0  0
   -2.4628  -20.5129    0.0000 C   0  0  0  0  0  0  0  0  0  0  0  0
   -2.4657  -19.6823    0.0000 C   0  0  0  0  0  0  0  0  0  0  0  0
   -3.1810  -19.2733    0.0000 C   0  0  0  0  0  0  0  0  0  0  0  0
   -4.6074  -19.2737    0.0000 C   0  0  0  0  0  0  0  0  0  0  0  0
   -4.6088  -20.9252    0.0000 F   0  0  0  0  0  0  0  0  0  0  0  0
   -1.7478  -20.9241    0.0000 C   0  0  0  0  0  0  0  0  0  0  0  0
   -1.7465  -21.7491    0.0000 O   0  0  0  0  0  0  0  0  0  0  0  0
  2  3  1  0
  5  6  2  0
  6  1  1  0
  1  2  2  0
  1  7  1  0
  3  4  2  0
  2  8  1  0
  4  9  1  0
  4  5  1  0
  9 10  2  0
M  END

> <chembl_id>
CHEMBL1650251

> <chembl_pref_name>
None

$$$$

     RDKit          2D

 10 10  0  0  0  0  0  0  0  0999 V2000
    3.0643    0.9075    0.0000 N   0  0  0  0  0  0  0  0  0  0  0  0
    3.0643    0.0825    0.0000 C   0  0  0  0  0  0  0  0  0  0  0  0
    3.7788   -0.3300    0.0000 C   0  0  0  0  0  0  0  0  0  0  0  0
    2.3498   -0.3300    0.0000 C   0  0  0  0  0  0  0  0  0  0  0  0
    3.7788   -1.1550    0.0000 C   0  0  0  0  0  0  0  0  0  0  0  0
    2.3498   -1.1550    0.0000 C   0  0  0  0  0  0  0  0  0  0  0  0
    3.0643    1.7325    0.0000 C   0  0  0  0  0  0  0  0  0  0  0  0
    2.2393    0.9075    0.0000 C   0  0  0  0  0  0  0  0  0  0  0  0
    3.8893    0.9075    0.0000 C   0  0  0  0  0  0  0  0  0  0  0  0
    3.0643   -1.5675    0.0000 C   0  0  0  0  0  0  0  0  0  0  0  0
  1  2  1  0
  1  7  1  0
  1  8  1  0
  1  9  1  0
  2  3  2  0
  2  4  1  0
  3  5  1  0
  4  6  2  0
  5 10  2  0
  6 10  1  0
M  CHG  1   1   1
M  END

> <chembl_id>
CHEMBL1229195

> <chembl_pref_name>
None

$$$$

     RDKit          2D

  9 10  0  0  0  0  0  0  0  0999 V2000
    2.1214    0.0000    0.0000 O   0  0  0  0  0  0  0  0  0  0  0  0
    4.2160   -0.4125    0.0000 N   0  0  0  0  0  0  0  0  0  0  0  0
    4.2160    0.4125    0.0000 N   0  0  0  0  0  0  0  0  0  0  0  0
    2.9464    0.0000    0.0000 C   0  0  0  0  0  0  0  0  0  0  0  0
    3.4314   -0.6674    0.0000 C   0  0  0  0  0  0  0  0  0  0  0  0
    3.4314    0.6674    0.0000 C   0  0  0  0  0  0  0  0  0  0  0  0
    5.0006   -0.6674    0.0000 C   0  0  0  0  0  0  0  0  0  0  0  0
    5.0006    0.6674    0.0000 C   0  0  0  0  0  0  0  0  0  0  0  0
    5.4855    0.0000    0.0000 C   0  0  0  0  0  0  0  0  0  0  0  0
  1  4  1  0
  2  3  1  0
  2  5  1  0
  2  7  2  0
  3  6  1  0
  3  8  1  0
  4  5  1  0
  4  6  1  0
  7  9  1  0
  8  9  2  0
M  CHG  1   2   1
M  END

> <chembl_id>
CHEMBL1618721

> <chembl_pref_name>
None

$$$$

     RDKit          2D

 10 11  0  0  0  0  0  0  0  0999 V2000
    5.5662   -6.2000    0.0000 C   0  0  0  0  0  0  0  0  0  0  0  0
    6.2782   -5.7917    0.0000 N   0  0  0  0  0  0  0  0  0  0  0  0
    6.2782   -4.9667    0.0000 C   0  0  0  0  0  0  0  0  0  0  0  0
    5.5662   -4.5500    0.0000 C   0  0  0  0  0  0  0  0  0  0  0  0
    4.8542   -5.7917    0.0000 N   0  0  0  0  0  0  0  0  0  0  0  0
    4.8496   -4.9667    0.0000 C   0  0  0  0  0  0  0  0  0  0  0  0
    4.0636   -4.7161    0.0000 C   0  0  0  0  0  0  0  0  0  0  0  0
    3.5824   -5.3862    0.0000 N   0  0  0  0  0  0  0  0  0  0  0  0
    4.0710   -6.0508    0.0000 C   0  0  0  0  0  0  0  0  0  0  0  0
    5.5662   -7.0250    0.0000 O   0  0  0  0  0  0  0  0  0  0  0  0
  5  6  1  0
  6  4  1  0
  5  1  1  0
  1  2  1  0
  2  3  1  0
  6  7  2  0
  7  8  1  0
  8  9  2  0
  9  5  1  0
  3  4  1  0
  1 10  2  0
M  END

> <chembl_id>
CHEMBL1780255

> <chembl_pref_name>
None

$$$$

     RDKit          2D

  9  9  0  0  0  0  0  0  0  0999 V2000
   -3.7167  -21.3134    0.0000 C   0  0  0  0  0  0  0  0  0  0  0  0
   -3.7178  -22.1396    0.0000 C   0  0  0  0  0  0  0  0  0  0  0  0
   -3.0040  -22.5518    0.0000 C   0  0  0  0  0  0  0  0  0  0  0  0
   -2.2887  -22.1391    0.0000 C   0  0  0  0  0  0  0  0  0  0  0  0
   -2.2915  -21.3098    0.0000 C   0  0  0  0  0  0  0  0  0  0  0  0
   -3.0058  -20.9013    0.0000 N   0  0  0  0  0  0  0  0  0  0  0  0
   -4.4315  -22.5509    0.0000 O   0  0  0  0  0  0  0  0  0  0  0  0
   -1.5797  -20.8953    0.0000 C   0  0  0  0  0  0  0  0  0  0  0  0
   -0.8648  -21.3044    0.0000 O   0  0  0  0  0  0  0  0  0  0  0  0
  4  5  1  0
  2  3  1  0
  5  6  2  0
  6  1  1  0
  1  2  2  0
  2  7  1  0
  3  4  2  0
  5  8  1  0
  8  9  1  0
M  END

> <chembl_id>
CHEMBL1917284

> <chembl_pref_name>
None

$$$$

     RDKit          2D

 10 10  0  0  0  0  0  0  0  0999 V2000
   -2.6972  -16.9742    0.0000 N   0  0  0  0  0  0  0  0  0  0  0  0
   -1.8878  -17.1140    0.0000 N   0  0  0  0  0  0  0  0  0  0  0  0
   -1.5052  -16.3962    0.0000 C   0  0  0  0  0  0  0  0  0  0  0  0
   -2.0789  -15.7961    0.0000 O   0  0  0  0  0  0  0  0  0  0  0  0
   -2.8195  -16.1615    0.0000 C   0  0  0  0  0  0  0  0  0  0  0  0
   -0.6788  -16.2968    0.0000 O   0  0  0  0  0  0  0  0  0  0  0  0
   -3.5327  -15.7469    0.0000 C   0  0  0  0  0  0  0  0  0  0  0  0
   -4.2474  -16.1569    0.0000 N   0  0  0  0  0  0  0  0  0  0  0  0
   -4.9597  -15.7428    0.0000 C   0  0  0  0  0  0  0  0  0  0  0  0
   -4.2497  -16.9807    0.0000 C   0  0  0  0  0  0  0  0  0  0  0  0
  5  1  2  0
  1  2  1  0
  3  6  1  0
  5  7  1  0
  2  3  2  0
  7  8  1  0
  3  4  1  0
  8  9  1  0
  4  5  1  0
  8 10  1  0
M  END

> <chembl_id>
CHEMBL455942

> <chembl_pref_name>
None

$$$$

     RDKit          2D

 10 10  0  0  0  0  0  0  0  0999 V2000
   -4.0931    0.0584    0.0000 C   0  0  0  0  0  0  0  0  0  0  0  0
   -4.0943   -0.7690    0.0000 C   0  0  0  0  0  0  0  0  0  0  0  0
   -3.3794   -1.1819    0.0000 C   0  0  0  0  0  0  0  0  0  0  0  0
   -2.6630   -0.7685    0.0000 C   0  0  0  0  0  0  0  0  0  0  0  0
   -2.6659    0.0620    0.0000 C   0  0  0  0  0  0  0  0  0  0  0  0
   -3.3812    0.4711    0.0000 C   0  0  0  0  0  0  0  0  0  0  0  0
   -3.3837    1.2961    0.0000 C   0  0  0  0  0  0  0  0  0  0  0  0
   -2.6705    1.7108    0.0000 C   0  0  0  0  0  0  0  0  0  0  0  0
   -1.9548    1.3004    0.0000 N   0  0  0  0  0  0  0  0  0  0  0  0
   -1.9523    0.4754    0.0000 N   0  0  0  0  0  0  0  0  0  0  0  0
  2  3  1  0
  5  6  2  0
  6  1  1  0
  1  2  2  0
  6  7  1  0
  3  4  2  0
  7  8  1  0
  8  9  2  0
  4  5  1  0
  9 10  1  0
M  END

> <chembl_id>
CHEMBL510653

> <chembl_pref_name>
None

$$$$

     RDKit          2D

 11 12  0  0  1  0  0  0  0  0999 V2000
    2.1445   -1.6449    0.0000 O   0  0  0  0  0  0  0  0  0  0  0  0
    2.1445    0.0000    0.0000 N   0  0  0  0  0  0  0  0  0  0  0  0
    1.4237   -0.4032    0.0000 C   0  0  0  0  0  0  0  0  0  0  0  0
    1.4237   -1.2453    0.0000 C   0  0  0  0  0  0  0  0  0  0  0  0
    2.8652   -0.4032    0.0000 C   0  0  0  0  0  0  0  0  0  0  0  0
    0.7208    0.0000    0.0000 C   0  0  0  0  0  0  0  0  0  0  0  0
    0.7208   -1.6449    0.0000 C   0  0  0  0  0  0  0  0  0  0  0  0
    2.8652   -1.2453    0.0000 C   0  0  0  0  0  0  0  0  0  0  0  0
    0.0000   -0.4032    0.0000 C   0  0  0  0  0  0  0  0  0  0  0  0
    0.0000   -1.2453    0.0000 C   0  0  0  0  0  0  0  0  0  0  0  0
    3.5681    0.0000    0.0000 C   0  0  0  0  0  0  0  0  0  0  0  0
  1  4  1  0
  1  8  1  0
  2  3  1  0
  2  5  1  0
  3  4  2  0
  3  6  1  0
  4  7  1  0
  5  8  1  0
  5 11  1  0
  6  9  2  0
  7 10  2  0
  9 10  1  0
M  END

> <chembl_id>
CHEMBL3183910

> <chembl_pref_name>
None

$$$$

     RDKit          2D

  8  8  0  0  0  0  0  0  0  0999 V2000
   -3.7155  -25.7322    0.0000 C   0  0  0  0  0  0  0  0  0  0  0  0
   -3.7167  -26.5589    0.0000 C   0  0  0  0  0  0  0  0  0  0  0  0
   -3.0023  -26.9715    0.0000 C   0  0  0  0  0  0  0  0  0  0  0  0
   -2.2864  -26.5585    0.0000 C   0  0  0  0  0  0  0  0  0  0  0  0
   -2.2893  -25.7285    0.0000 C   0  0  0  0  0  0  0  0  0  0  0  0
   -3.0041  -25.3197    0.0000 C   0  0  0  0  0  0  0  0  0  0  0  0
   -4.4296  -25.3201    0.0000 Cl  0  0  0  0  0  0  0  0  0  0  0  0
   -4.4310  -26.9706    0.0000 C   0  0  0  0  0  0  0  0  0  0  0  0
  4  5  1  0
  2  3  1  0
  5  6  2  0
  6  1  1  0
  1  2  2  0
  1  7  1  0
  3  4  2  0
  2  8  1  0
M  END

> <chembl_id>
CHEMBL1797265

> <chembl_pref_name>
None

$$$$

     RDKit          2D

  9  9  0  0  0  0  0  0  0  0999 V2000
    3.1862   -6.9255    0.0000 C   0  0  0  0  0  0  0  0  0  0  0  0
    4.0034   -6.9255    0.0000 C   0  0  0  0  0  0  0  0  0  0  0  0
    4.2577   -6.1488    0.0000 C   0  0  0  0  0  0  0  0  0  0  0  0
    3.5948   -5.6667    0.0000 S   0  0  0  0  0  0  0  0  0  0  0  0
    2.9360   -6.1488    0.0000 C   0  0  0  0  0  0  0  0  0  0  0  0
    4.9609   -5.7327    0.0000 C   0  0  0  0  0  0  0  0  0  0  0  0
    5.6730   -6.1337    0.0000 O   0  0  0  0  0  0  0  0  0  0  0  0
    4.9522   -4.9156    0.0000 O   0  0  0  0  0  0  0  0  0  0  0  0
    2.1587   -5.8966    0.0000 C   0  0  0  0  0  0  0  0  0  0  0  0
  1  2  1  0
  2  3  2  0
  3  4  1  0
  4  5  1  0
  5  1  2  0
  3  6  1  0
  6  7  1  0
  6  8  2  0
  5  9  1  0
M  END

> <chembl_id>
CHEMBL4283897

> <chembl_pref_name>
None

$$$$

     RDKit          2D

  9  9  0  0  0  0  0  0  0  0999 V2000
    1.2990   -0.7500    0.0000 N   0  0  0  0  0  0  0  0  0  0  0  0
    0.0000    1.5000    0.0000 C   0  0  0  0  0  0  0  0  0  0  0  0
   -1.2990   -0.7500    0.0000 C   0  0  0  0  0  0  0  0  0  0  0  0
    1.2990    0.7500    0.0000 C   0  0  0  0  0  0  0  0  0  0  0  0
    0.0000   -1.5000    0.0000 C   0  0  0  0  0  0  0  0  0  0  0  0
   -1.2990    0.7500    0.0000 C   0  0  0  0  0  0  0  0  0  0  0  0
   -2.6003    1.4977    0.0000 N   0  0  0  0  0  0  0  0  0  0  0  0
    2.3383   -1.3500    0.0000 C   0  0  0  0  0  0  0  0  0  0  0  0
   -3.6387    0.8962    0.0000 C   0  0  0  0  0  0  0  0  0  0  0  0
  1  4  1  0
  2  4  2  0
  1  5  1  0
  3  5  2  0
  2  6  1  0
  3  6  1  0
  6  7  2  0
  1  8  1  0
  7  9  1  0
M  END

> <chembl_id>
CHEMBL1192353

> <chembl_pref_name>
None

$$$$

     RDKit          2D

 10 10  0  0  0  0  0  0  0  0999 V2000
    4.8292   -1.7917    0.0000 N   0  0  0  0  0  0  0  0  0  0  0  0
    6.6292   -2.2500    0.0000 C   0  0  0  0  0  0  0  0  0  0  0  0
    5.0417   -2.3542    0.0000 C   0  0  0  0  0  0  0  0  0  0  0  0
    4.5792   -2.7292    0.0000 N   0  0  0  0  0  0  0  0  0  0  0  0
    6.7792   -2.8292    0.0000 N   0  0  0  0  0  0  0  0  0  0  0  0
    6.0500   -2.0917    0.0000 N   0  0  0  0  0  0  0  0  0  0  0  0
    4.2292   -1.8167    0.0000 C   0  0  0  0  0  0  0  0  0  0  0  0
    4.0750   -2.4000    0.0000 C   0  0  0  0  0  0  0  0  0  0  0  0
    5.6250   -2.5125    0.0000 C   0  0  0  0  0  0  0  0  0  0  0  0
    7.0542   -1.8292    0.0000 N   0  0  0  0  0  0  0  0  0  0  0  0
  2  6  1  0
  3  1  2  0
  4  3  1  0
  5  2  2  0
  6  9  1  0
  7  1  1  0
  8  7  2  0
  9  3  1  0
 10  2  1  0
  4  8  1  0
M  END

> <chembl_id>
CHEMBL101317

> <chembl_pref_name>
None

$$$$

     RDKit          2D

 11 11  0  0  0  0  0  0  0  0999 V2000
    0.0000   -1.2452    0.0000 O   0  0  0  0  0  0  0  0  0  0  0  0
    0.7041    0.0000    0.0000 O   0  0  0  0  0  0  0  0  0  0  0  0
    0.7041   -0.8153    0.0000 N   0  0  0  0  0  0  0  0  0  0  0  0
    2.1272   -2.4607    0.0000 C   0  0  0  0  0  0  0  0  0  0  0  0
    1.4305   -2.0605    0.0000 C   0  0  0  0  0  0  0  0  0  0  0  0
    1.4305   -1.2452    0.0000 C   0  0  0  0  0  0  0  0  0  0  0  0
    2.8536   -2.0605    0.0000 C   0  0  0  0  0  0  0  0  0  0  0  0
    2.1272   -3.2946    0.0000 C   0  0  0  0  0  0  0  0  0  0  0  0
    3.5576   -2.4607    0.0000 C   0  0  0  0  0  0  0  0  0  0  0  0
    2.8536   -3.7059    0.0000 C   0  0  0  0  0  0  0  0  0  0  0  0
    3.5576   -3.2946    0.0000 C   0  0  0  0  0  0  0  0  0  0  0  0
  1  3  1  0
  2  3  2  0
  3  6  1  0
  4  5  1  0
  4  7  2  0
  4  8  1  0
  5  6  2  3
  7  9  1  0
  8 10  2  0
  9 11  2  0
 10 11  1  0
M  CHG  2   1  -1   3   1
M  END

> <chembl_id>
CHEMBL3187573

> <chembl_pref_name>
None

$$$$

     RDKit          2D

 10 10  0  0  0  0  0  0  0  0999 V2000
    3.4542   -1.0167    0.0000 C   0  0  0  0  0  0  0  0  0  0  0  0
    3.7542   -0.4917    0.0000 C   0  0  0  0  0  0  0  0  0  0  0  0
    2.8500   -1.0167    0.0000 C   0  0  0  0  0  0  0  0  0  0  0  0
    1.6542   -1.0542    0.0000 C   0  0  0  0  0  0  0  0  0  0  0  0
    2.5292   -0.5042    0.0000 C   0  0  0  0  0  0  0  0  0  0  0  0
    2.5667   -1.5417    0.0000 C   0  0  0  0  0  0  0  0  0  0  0  0
    1.9292   -0.5292    0.0000 C   0  0  0  0  0  0  0  0  0  0  0  0
    1.9667   -1.5625    0.0000 C   0  0  0  0  0  0  0  0  0  0  0  0
    1.0500   -1.0667    0.0000 O   0  0  0  0  0  0  0  0  0  0  0  0
    4.3500   -0.4875    0.0000 C   0  0  0  0  0  0  0  0  0  0  0  0
  2  1  2  0
  3  1  1  0
  4  8  1  0
  5  3  2  0
  6  3  1  0
  7  5  1  0
  8  6  2  0
  9  4  1  0
 10  2  1  0
  7  4  2  0
M  END

> <chembl_id>
CHEMBL163297

> <chembl_pref_name>
None

$$$$

     RDKit          2D

 11 12  0  0  0  0  0  0  0  0999 V2000
   -4.9647    2.6815    0.0000 C   0  0  0  0  0  0  0  0  0  0  0  0
   -4.9659    1.8547    0.0000 C   0  0  0  0  0  0  0  0  0  0  0  0
   -4.2515    1.4421    0.0000 C   0  0  0  0  0  0  0  0  0  0  0  0
   -4.2533    3.0940    0.0000 C   0  0  0  0  0  0  0  0  0  0  0  0
   -3.5384    2.6851    0.0000 C   0  0  0  0  0  0  0  0  0  0  0  0
   -3.5395    1.8572    0.0000 C   0  0  0  0  0  0  0  0  0  0  0  0
   -2.8271    1.4446    0.0000 N   0  0  0  0  0  0  0  0  0  0  0  0
   -2.1089    1.8552    0.0000 C   0  0  0  0  0  0  0  0  0  0  0  0
   -2.1077    2.6831    0.0000 C   0  0  0  0  0  0  0  0  0  0  0  0
   -2.8247    3.1004    0.0000 O   0  0  0  0  0  0  0  0  0  0  0  0
   -1.3961    1.4410    0.0000 O   0  0  0  0  0  0  0  0  0  0  0  0
  2  3  1  0
  3  6  2  0
  1  2  2  0
  5  4  2  0
  4  1  1  0
  5 10  1  0
  6  7  1  0
  7  8  1  0
  8  9  1  0
  9 10  1  0
  5  6  1  0
  8 11  2  0
M  END

> <chembl_id>
CHEMBL460153

> <chembl_pref_name>
None

$$$$

     RDKit          2D

 10 10  0  0  0  0  0  0  0  0999 V2000
    3.6792   -3.2292    0.0000 N   0  0  0  0  0  0  0  0  0  0  0  0
    2.3375   -3.1917    0.0000 N   0  0  0  0  0  0  0  0  0  0  0  0
    2.9875   -3.7000    0.0000 C   0  0  0  0  0  0  0  0  0  0  0  0
    3.4542   -2.4417    0.0000 C   0  0  0  0  0  0  0  0  0  0  0  0
    2.6292   -2.4125    0.0000 C   0  0  0  0  0  0  0  0  0  0  0  0
    3.9625   -1.7917    0.0000 C   0  0  0  0  0  0  0  0  0  0  0  0
    5.2917   -1.2542    0.0000 N   0  0  0  0  0  0  0  0  0  0  0  0
    2.9625   -4.5250    0.0000 C   0  0  0  0  0  0  0  0  0  0  0  0
    4.7792   -1.9042    0.0000 C   0  0  0  0  0  0  0  0  0  0  0  0
    2.2292   -4.9125    0.0000 C   0  0  0  0  0  0  0  0  0  0  0  0
  2  3  1  0
  3  1  2  0
  4  1  1  0
  5  4  2  0
  6  4  1  0
  7  9  1  0
  8  3  1  0
  9  6  1  0
 10  8  1  0
  2  5  1  0
M  END

> <chembl_id>
CHEMBL46153

> <chembl_pref_name>
None

$$$$

     RDKit          2D

 11 11  0  0  0  0  0  0  0  0999 V2000
   -1.5305  -25.3835    0.0000 N   0  0  0  0  0  0  0  0  0  0  0  0
   -2.2447  -25.7960    0.0000 C   0  0  0  0  0  0  0  0  0  0  0  0
   -2.2447  -26.6210    0.0000 C   0  0  0  0  0  0  0  0  0  0  0  0
   -1.4197  -26.6210    0.0000 C   0  0  0  0  0  0  0  0  0  0  0  0
   -3.0697  -26.6210    0.0000 C   0  0  0  0  0  0  0  0  0  0  0  0
   -3.4822  -27.3351    0.0000 C   0  0  0  0  0  0  0  0  0  0  0  0
   -4.3072  -27.3351    0.0000 C   0  0  0  0  0  0  0  0  0  0  0  0
   -4.7197  -26.6210    0.0000 C   0  0  0  0  0  0  0  0  0  0  0  0
   -4.3072  -25.9069    0.0000 C   0  0  0  0  0  0  0  0  0  0  0  0
   -3.4822  -25.9069    0.0000 C   0  0  0  0  0  0  0  0  0  0  0  0
   -2.2447  -27.4460    0.0000 C   0  0  0  0  0  0  0  0  0  0  0  0
  2  3  1  0
  3  4  1  0
  1  2  1  0
  5  6  1  0
  6  7  2  0
  7  8  1  0
  8  9  2  0
  9 10  1  0
  5 10  2  0
  3  5  1  0
  3 11  1  0
M  END

> <chembl_id>
CHEMBL505110

> <chembl_pref_name>
None

$$$$

     RDKit          2D

  7  7  0  0  0  0  0  0  0  0999 V2000
   11.6667  -10.2565    0.0000 C   0  0  0  0  0  0  0  0  0  0  0  0
   11.6655  -11.0833    0.0000 C   0  0  0  0  0  0  0  0  0  0  0  0
   12.3799  -11.4959    0.0000 C   0  0  0  0  0  0  0  0  0  0  0  0
   13.0960  -11.0829    0.0000 C   0  0  0  0  0  0  0  0  0  0  0  0
   13.0931  -10.2528    0.0000 N   0  0  0  0  0  0  0  0  0  0  0  0
   12.3781   -9.8439    0.0000 C   0  0  0  0  0  0  0  0  0  0  0  0
   12.3797  -12.3205    0.0000 F   0  0  0  0  0  0  0  0  0  0  0  0
  3  4  2  0
  4  5  1  0
  2  3  1  0
  5  6  2  0
  6  1  1  0
  1  2  2  0
  3  7  1  0
M  END

> <chembl_id>
CHEMBL1162361

> <chembl_pref_name>
None

$$$$

     RDKit          2D

 11 12  0  0  0  0  0  0  0  0999 V2000
   -8.3010    1.1394    0.0000 C   0  0  0  0  0  0  0  0  0  0  0  0
   -8.3010   -0.3606    0.0000 C   0  0  0  0  0  0  0  0  0  0  0  0
   -7.0019   -1.1106    0.0000 C   0  0  0  0  0  0  0  0  0  0  0  0
   -7.0019    1.8894    0.0000 C   0  0  0  0  0  0  0  0  0  0  0  0
   -5.7029    1.1394    0.0000 C   0  0  0  0  0  0  0  0  0  0  0  0
   -5.7029   -0.3606    0.0000 C   0  0  0  0  0  0  0  0  0  0  0  0
   -4.2763   -0.8242    0.0000 C   0  0  0  0  0  0  0  0  0  0  0  0
   -3.3946    0.3894    0.0000 C   0  0  0  0  0  0  0  0  0  0  0  0
   -4.2763    1.6029    0.0000 C   0  0  0  0  0  0  0  0  0  0  0  0
   -3.8128   -2.2507    0.0000 O   0  0  0  0  0  0  0  0  0  0  0  0
   -2.3455   -2.5626    0.0000 N   0  0  0  0  0  0  0  0  0  0  0  0
  1  2  2  0
  2  3  1  0
  3  6  2  0
  5  4  2  0
  4  1  1  0
  5  6  1  0
  6  7  1  0
  7  8  1  0
  8  9  1  0
  9  5  1  0
  7 10  1  0
 10 11  1  0
M  END

> <chembl_id>
CHEMBL3765914

> <chembl_pref_name>
None

$$$$

     RDKit          2D

 10 10  0  0  0  0  0  0  0  0999 V2000
   16.7811   -8.0956    0.0000 N   0  0  0  0  0  0  0  0  0  0  0  0
   17.4970   -7.6831    0.0000 C   0  0  0  0  0  0  0  0  0  0  0  0
   18.2127   -8.0956    0.0000 C   0  0  0  0  0  0  0  0  0  0  0  0
   18.9244   -7.6831    0.0000 C   0  0  0  0  0  0  0  0  0  0  0  0
   19.0134   -6.8609    0.0000 C   0  0  0  0  0  0  0  0  0  0  0  0
   19.8193   -6.6885    0.0000 N   0  0  0  0  0  0  0  0  0  0  0  0
   20.2318   -7.4043    0.0000 C   0  0  0  0  0  0  0  0  0  0  0  0
   19.6788   -8.0166    0.0000 N   0  0  0  0  0  0  0  0  0  0  0  0
   16.7804   -8.9205    0.0000 C   0  0  0  0  0  0  0  0  0  0  0  0
   18.4009   -6.3083    0.0000 C   0  0  0  0  0  0  0  0  0  0  0  0
  1  2  1  0
  2  3  1  0
  3  4  1  0
  4  5  2  0
  5  6  1  0
  6  7  2  0
  7  8  1  0
  4  8  1  0
  1  9  1  0
  5 10  1  0
M  END

> <chembl_id>
CHEMBL3305398

> <chembl_pref_name>
None

$$$$

     RDKit          2D

 10 10  0  0  0  0  0  0  0  0999 V2000
   -1.9583   -2.5042    0.0000 N   0  0  0  0  0  0  0  0  0  0  0  0
   -1.9583   -3.1042    0.0000 C   0  0  0  0  0  0  0  0  0  0  0  0
   -1.4333   -3.4042    0.0000 C   0  0  0  0  0  0  0  0  0  0  0  0
   -1.4375   -2.2000    0.0000 O   0  0  0  0  0  0  0  0  0  0  0  0
   -2.4833   -2.2042    0.0000 O   0  0  0  0  0  0  0  0  0  0  0  0
   -1.4333   -4.0042    0.0000 C   0  0  0  0  0  0  0  0  0  0  0  0
   -0.9125   -4.3042    0.0000 F   0  0  0  0  0  0  0  0  0  0  0  0
   -2.4708   -3.4042    0.0000 C   0  0  0  0  0  0  0  0  0  0  0  0
   -2.4708   -4.0042    0.0000 C   0  0  0  0  0  0  0  0  0  0  0  0
   -1.9583   -4.3042    0.0000 C   0  0  0  0  0  0  0  0  0  0  0  0
  2  1  1  0
  3  2  2  0
  4  1  1  0
  5  1  2  0
  6  3  1  0
  7  6  1  0
  8  2  1  0
  9  8  2  0
 10  9  1  0
 10  6  2  0
M  CHG  2   1   1   4  -1
M  END

> <chembl_id>
CHEMBL164634

> <chembl_pref_name>
None

$$$$

     RDKit          2D

 10 10  0  0  0  0  0  0  0  0999 V2000
    2.6917   -1.4042    0.0000 N   0  0  0  0  0  0  0  0  0  0  0  0
    3.4042   -0.9917    0.0000 C   0  0  0  0  0  0  0  0  0  0  0  0
    4.1250   -1.4042    0.0000 C   0  0  0  0  0  0  0  0  0  0  0  0
    2.6917   -2.2292    0.0000 O   0  0  0  0  0  0  0  0  0  0  0  0
    4.1292   -2.2292    0.0000 O   0  0  0  0  0  0  0  0  0  0  0  0
    4.8417   -0.9875    0.0000 O   0  0  0  0  0  0  0  0  0  0  0  0
    1.9792   -0.9917    0.0000 C   0  0  0  0  0  0  0  0  0  0  0  0
    3.4042   -0.1542    0.0000 C   0  0  0  0  0  0  0  0  0  0  0  0
    1.9792   -0.1542    0.0000 C   0  0  0  0  0  0  0  0  0  0  0  0
    2.6917    0.2500    0.0000 C   0  0  0  0  0  0  0  0  0  0  0  0
  2  1  2  0
  3  2  1  0
  4  1  1  0
  5  3  2  0
  6  3  1  0
  7  1  1  0
  8  2  1  0
  9  7  2  0
 10  9  1  0
 10  8  2  0
M  CHG  2   1   1   4  -1
M  END

> <chembl_id>
CHEMBL73173

> <chembl_pref_name>
None

$$$$

     RDKit          2D

  8  8  0  0  0  0  0  0  0  0999 V2000
    3.5277  -20.9454    0.0000 C   0  0  0  0  0  0  0  0  0  0  0  0
    4.2415  -20.5316    0.0000 C   0  0  0  0  0  0  0  0  0  0  0  0
    4.2376  -19.7108    0.0000 C   0  0  0  0  0  0  0  0  0  0  0  0
    3.5270  -19.2995    0.0000 C   0  0  0  0  0  0  0  0  0  0  0  0
    2.8134  -19.7135    0.0000 C   0  0  0  0  0  0  0  0  0  0  0  0
    2.8101  -20.5384    0.0000 O   0  0  0  0  0  0  0  0  0  0  0  0
    3.5316  -21.7705    0.0000 O   0  0  0  0  0  0  0  0  0  0  0  0
    4.9573  -20.9417    0.0000 O   0  0  0  0  0  0  0  0  0  0  0  0
  1  6  1  0
  2  3  2  0
  3  4  1  0
  4  5  2  0
  5  6  1  0
  1  7  2  0
  1  2  1  0
  2  8  1  0
M  END

> <chembl_id>
CHEMBL1650618

> <chembl_pref_name>
None

$$$$

     RDKit          2D

  9  9  0  0  0  0  0  0  0  0999 V2000
   12.8277  -12.9791    0.0000 C   0  0  0  0  0  0  0  0  0  0  0  0
   12.8266  -13.8065    0.0000 N   0  0  0  0  0  0  0  0  0  0  0  0
   13.5414  -14.2194    0.0000 C   0  0  0  0  0  0  0  0  0  0  0  0
   14.2578  -13.8060    0.0000 N   0  0  0  0  0  0  0  0  0  0  0  0
   14.2550  -12.9755    0.0000 C   0  0  0  0  0  0  0  0  0  0  0  0
   13.5396  -12.5664    0.0000 C   0  0  0  0  0  0  0  0  0  0  0  0
   13.5412  -15.0444    0.0000 C   0  0  0  0  0  0  0  0  0  0  0  0
   12.1132  -12.5668    0.0000 O   0  0  0  0  0  0  0  0  0  0  0  0
   14.9679  -12.5603    0.0000 O   0  0  0  0  0  0  0  0  0  0  0  0
  4  5  1  0
  2  3  1  0
  5  6  2  0
  6  1  1  0
  1  2  2  0
  3  7  1  0
  3  4  2  0
  1  8  1  0
  5  9  1  0
M  END

> <chembl_id>
CHEMBL1650612

> <chembl_pref_name>
None

$$$$

     RDKit          2D

  8  8  0  0  0  0  0  0  0  0999 V2000
    1.9667   -2.4667    0.0000 N   0  0  0  0  0  0  0  0  0  0  0  0
    2.4875   -1.5750    0.0000 C   0  0  0  0  0  0  0  0  0  0  0  0
    3.0042   -0.6750    0.0000 O   0  0  0  0  0  0  0  0  0  0  0  0
    3.0042   -1.2750    0.0000 C   0  0  0  0  0  0  0  0  0  0  0  0
    2.4875   -2.1750    0.0000 C   0  0  0  0  0  0  0  0  0  0  0  0
    1.4500   -2.1750    0.0000 C   0  0  0  0  0  0  0  0  0  0  0  0
    1.9667   -1.2667    0.0000 C   0  0  0  0  0  0  0  0  0  0  0  0
    1.4500   -1.5750    0.0000 C   0  0  0  0  0  0  0  0  0  0  0  0
  2  5  1  0
  3  4  2  0
  4  2  1  0
  5  1  2  0
  6  1  1  0
  7  8  1  0
  8  6  2  0
  7  2  2  0
M  END

> <chembl_id>
CHEMBL268493

> <chembl_pref_name>
NICOTINALDEHYDE

$$$$

     RDKit          2D

 10 10  0  0  0  0  0  0  0  0999 V2000
    8.4602  -16.2945    0.0000 C   0  0  0  0  0  0  0  0  0  0  0  0
    8.4591  -17.1214    0.0000 C   0  0  0  0  0  0  0  0  0  0  0  0
    9.1735  -17.5341    0.0000 C   0  0  0  0  0  0  0  0  0  0  0  0
    9.8895  -17.1209    0.0000 C   0  0  0  0  0  0  0  0  0  0  0  0
    9.8867  -16.2909    0.0000 C   0  0  0  0  0  0  0  0  0  0  0  0
    9.1717  -15.8821    0.0000 C   0  0  0  0  0  0  0  0  0  0  0  0
    9.1692  -15.0575    0.0000 C   0  0  0  0  0  0  0  0  0  0  0  0
    9.1613  -14.2291    0.0000 C   0  0  0  0  0  0  0  0  0  0  0  0
    9.1733  -18.3586    0.0000 O   0  0  0  0  0  0  0  0  0  0  0  0
    8.4591  -18.7707    0.0000 C   0  0  0  0  0  0  0  0  0  0  0  0
  2  3  1  0
  5  6  2  0
  6  1  1  0
  1  2  2  0
  6  7  1  0
  3  4  2  0
  7  8  3  0
  3  9  1  0
  4  5  1  0
  9 10  1  0
M  END

> <chembl_id>
CHEMBL232552

> <chembl_pref_name>
None

$$$$

     RDKit          2D

  7  7  0  0  0  0  0  0  0  0999 V2000
   -2.8460    1.0320    0.0000 N   0  0  0  0  0  0  0  0  0  0  0  0
   -2.0663    0.7664    0.0000 N   0  0  0  0  0  0  0  0  0  0  0  0
   -1.5725    1.4258    0.0000 N   0  0  0  0  0  0  0  0  0  0  0  0
   -2.0473    2.0992    0.0000 N   0  0  0  0  0  0  0  0  0  0  0  0
   -2.8342    1.8556    0.0000 C   0  0  0  0  0  0  0  0  0  0  0  0
   -3.4948    2.3501    0.0000 C   0  0  0  0  0  0  0  0  0  0  0  0
   -4.2532    2.0252    0.0000 N   0  0  0  0  0  0  0  0  0  0  0  0
  3  4  1  0
  4  5  2  0
  5  1  1  0
  1  2  1  0
  5  6  1  0
  6  7  1  0
  2  3  2  0
M  END

> <chembl_id>
CHEMBL1963385

> <chembl_pref_name>
None

$$$$

     RDKit          2D

  9  9  0  0  0  0  0  0  0  0999 V2000
   -0.5927  -16.7925    0.0000 C   0  0  0  0  0  0  0  0  0  0  0  0
   -0.5939  -17.6193    0.0000 C   0  0  0  0  0  0  0  0  0  0  0  0
    0.1205  -18.0319    0.0000 C   0  0  0  0  0  0  0  0  0  0  0  0
    0.8364  -17.6188    0.0000 C   0  0  0  0  0  0  0  0  0  0  0  0
    0.8335  -16.7889    0.0000 C   0  0  0  0  0  0  0  0  0  0  0  0
    0.1187  -16.3801    0.0000 C   0  0  0  0  0  0  0  0  0  0  0  0
    0.1162  -15.5556    0.0000 C   0  0  0  0  0  0  0  0  0  0  0  0
    0.1082  -14.7273    0.0000 C   0  0  0  0  0  0  0  0  0  0  0  0
    0.1203  -18.8563    0.0000 F   0  0  0  0  0  0  0  0  0  0  0  0
  4  5  1  0
  2  3  1  0
  5  6  2  0
  6  1  1  0
  1  2  2  0
  6  7  1  0
  3  4  2  0
  7  8  3  0
  3  9  1  0
M  END

> <chembl_id>
CHEMBL233810

> <chembl_pref_name>
None

$$$$

     RDKit          2D

  8  8  0  0  0  0  0  0  0  0999 V2000
    2.8595   -1.6499    0.0000 N   0  0  0  0  0  0  0  0  0  0  0  0
    0.0000   -1.6499    0.0000 N   0  0  0  0  0  0  0  0  0  0  0  0
    2.1446   -1.2381    0.0000 C   0  0  0  0  0  0  0  0  0  0  0  0
    0.7149   -1.2381    0.0000 C   0  0  0  0  0  0  0  0  0  0  0  0
    1.4297   -1.6499    0.0000 C   0  0  0  0  0  0  0  0  0  0  0  0
    2.1446   -0.4146    0.0000 C   0  0  0  0  0  0  0  0  0  0  0  0
    0.7149   -0.4146    0.0000 C   0  0  0  0  0  0  0  0  0  0  0  0
    1.4297    0.0000    0.0000 C   0  0  0  0  0  0  0  0  0  0  0  0
  1  3  1  0
  2  4  1  0
  3  5  1  0
  3  6  2  0
  4  5  2  0
  4  7  1  0
  6  8  1  0
  7  8  2  0
M  END

> <chembl_id>
CHEMBL1595914

> <chembl_pref_name>
None

$$$$

     RDKit          2D

  8  8  0  0  0  0  0  0  0  0999 V2000
    0.7500   -1.0323    0.0000 N   0  0  0  0  0  0  0  0  0  0  0  0
    1.6281   -2.2462    0.0000 C   0  0  0  0  0  0  0  0  0  0  0  0
    1.2135    0.3943    0.0000 N   0  0  0  0  0  0  0  0  0  0  0  0
    1.1385   -3.3418    0.0000 N   0  0  0  0  0  0  0  0  0  0  0  0
   -0.7500   -1.0323    0.0000 C   0  0  0  0  0  0  0  0  0  0  0  0
   -1.2135    0.3943    0.0000 C   0  0  0  0  0  0  0  0  0  0  0  0
    0.0000    1.2760    0.0000 C   0  0  0  0  0  0  0  0  0  0  0  0
    2.8218   -2.1229    0.0000 N   0  0  0  0  0  0  0  0  0  0  0  0
  1  2  1  0
  1  3  1  0
  2  4  2  0
  1  5  1  0
  5  6  2  0
  3  7  2  0
  6  7  1  0
  2  8  1  0
M  END

> <chembl_id>
CHEMBL503356

> <chembl_pref_name>
PRAXADINE

$$$$

     RDKit          2D

 11 11  0  0  0  0  0  0  0  0999 V2000
    1.4286    0.0000    0.0000 O   0  0  0  0  0  0  0  0  0  0  0  0
    2.1430   -1.2429    0.0000 C   0  0  0  0  0  0  0  0  0  0  0  0
    1.4286   -0.8250    0.0000 C   0  0  0  0  0  0  0  0  0  0  0  0
    0.7143   -1.2429    0.0000 C   0  0  0  0  0  0  0  0  0  0  0  0
    2.1430   -2.0643    0.0000 C   0  0  0  0  0  0  0  0  0  0  0  0
    2.8572   -0.8250    0.0000 C   0  0  0  0  0  0  0  0  0  0  0  0
    2.8572   -2.4715    0.0000 C   0  0  0  0  0  0  0  0  0  0  0  0
    3.5715   -1.2429    0.0000 C   0  0  0  0  0  0  0  0  0  0  0  0
    3.5715   -2.0643    0.0000 C   0  0  0  0  0  0  0  0  0  0  0  0
    0.7143   -2.0643    0.0000 C   0  0  0  0  0  0  0  0  0  0  0  0
    0.0000   -0.8250    0.0000 C   0  0  0  0  0  0  0  0  0  0  0  0
  1  3  2  0
  2  3  1  0
  2  5  2  0
  2  6  1  0
  3  4  1  0
  4 10  1  0
  4 11  1  0
  5  7  1  0
  6  8  2  0
  7  9  2  0
  8  9  1  0
M  END

> <chembl_id>
CHEMBL3187314

> <chembl_pref_name>
None

$$$$

     RDKit          2D

 10 10  0  0  0  0  0  0  0  0999 V2000
    4.3588    0.2922    0.0000 N   0  0  0  0  0  0  0  0  0  0  0  0
    4.1038   -0.4924    0.0000 N   0  0  0  0  0  0  0  0  0  0  0  0
    3.6913    1.6022    0.0000 N   0  0  0  0  0  0  0  0  0  0  0  0
    3.0239    0.2922    0.0000 C   0  0  0  0  0  0  0  0  0  0  0  0
    3.6913    0.7772    0.0000 C   0  0  0  0  0  0  0  0  0  0  0  0
    3.2788   -0.4924    0.0000 C   0  0  0  0  0  0  0  0  0  0  0  0
    2.7939   -1.1598    0.0000 C   0  0  0  0  0  0  0  0  0  0  0  0
    2.2393    0.5472    0.0000 C   0  0  0  0  0  0  0  0  0  0  0  0
    5.1434    0.5472    0.0000 C   0  0  0  0  0  0  0  0  0  0  0  0
    3.1295   -1.9135    0.0000 C   0  0  0  0  0  0  0  0  0  0  0  0
  1  2  1  0
  1  5  1  0
  1  9  1  0
  2  6  2  0
  3  5  1  0
  4  5  2  0
  4  6  1  0
  4  8  1  0
  6  7  1  0
  7 10  1  0
M  END

> <chembl_id>
CHEMBL1621372

> <chembl_pref_name>
None

$$$$

     RDKit          2D

 11 12  0  0  0  0  0  0  0  0999 V2000
    0.7200    0.0000    0.0000 N   0  0  0  0  0  0  0  0  0  0  0  0
    1.4436   -1.2440    0.0000 C   0  0  0  0  0  0  0  0  0  0  0  0
    1.4436   -0.4028    0.0000 C   0  0  0  0  0  0  0  0  0  0  0  0
    2.1243   -1.6432    0.0000 C   0  0  0  0  0  0  0  0  0  0  0  0
    2.8443   -1.2440    0.0000 C   0  0  0  0  0  0  0  0  0  0  0  0
    2.1243    0.0000    0.0000 C   0  0  0  0  0  0  0  0  0  0  0  0
    0.7200   -1.6432    0.0000 C   0  0  0  0  0  0  0  0  0  0  0  0
    2.8443   -0.4028    0.0000 C   0  0  0  0  0  0  0  0  0  0  0  0
    0.0000   -0.4028    0.0000 C   0  0  0  0  0  0  0  0  0  0  0  0
    0.0000   -1.2440    0.0000 C   0  0  0  0  0  0  0  0  0  0  0  0
    3.5643   -1.6432    0.0000 C   0  0  0  0  0  0  0  0  0  0  0  0
  1  3  1  0
  1  9  1  0
  2  3  2  0
  2  4  1  0
  2  7  1  0
  3  6  1  0
  4  5  2  0
  5  8  1  0
  5 11  1  0
  6  8  2  0
  7 10  1  0
  9 10  1  0
M  END

> <chembl_id>
CHEMBL3188227

> <chembl_pref_name>
None

$$$$

     RDKit          2D

 10 10  0  0  0  0  0  0  0  0999 V2000
    4.8997    5.1949    0.0000 C   0  0  0  0  0  0  0  0  0  0  0  0
    4.8997    6.6949    0.0000 C   0  0  0  0  0  0  0  0  0  0  0  0
    3.6006    7.4449    0.0000 C   0  0  0  0  0  0  0  0  0  0  0  0
    2.3016    6.6949    0.0000 C   0  0  0  0  0  0  0  0  0  0  0  0
    2.3016    5.1949    0.0000 C   0  0  0  0  0  0  0  0  0  0  0  0
    3.6006    4.4449    0.0000 C   0  0  0  0  0  0  0  0  0  0  0  0
    1.0026    4.4449    0.0000 C   0  0  0  0  0  0  0  0  0  0  0  0
    1.0025    2.9449    0.0000 O   0  0  0  0  0  0  0  0  0  0  0  0
   -0.2965    2.1949    0.0000 N   0  0  0  0  0  0  0  0  0  0  0  0
    6.1987    4.4449    0.0000 C   0  0  0  0  0  0  0  0  0  0  0  0
  1  2  2  0
  2  3  1  0
  3  4  2  0
  4  5  1  0
  5  6  2  0
  6  1  1  0
  5  7  1  0
  7  8  1  0
  8  9  1  0
  1 10  1  0
M  END

> <chembl_id>
CHEMBL3765983

> <chembl_pref_name>
None

$$$$

     RDKit          2D

  7  7  0  0  0  0  0  0  0  0999 V2000
   24.3157   -7.1012    0.0000 N   0  0  0  0  0  0  0  0  0  0  0  0
   25.0285   -6.6873    0.0000 C   0  0  0  0  0  0  0  0  0  0  0  0
   25.7979   -7.0246    0.0000 N   0  0  0  0  0  0  0  0  0  0  0  0
   24.2771   -7.9332    0.0000 C   0  0  0  0  0  0  0  0  0  0  0  0
   23.6948   -6.5433    0.0000 C   0  0  0  0  0  0  0  0  0  0  0  0
   24.0302   -5.7991    0.0000 C   0  0  0  0  0  0  0  0  0  0  0  0
   24.8521   -5.8792    0.0000 S   0  0  0  0  0  0  0  0  0  0  0  0
  1  2  1  0
  2  3  2  0
  1  4  1  0
  1  5  1  0
  5  6  2  0
  6  7  1  0
  2  7  1  0
M  END

> <chembl_id>
CHEMBL3303633

> <chembl_pref_name>
None

$$$$

     RDKit          2D

  9  9  0  0  0  0  0  0  0  0999 V2000
    2.1335    0.8236    0.0000 N   0  0  0  0  0  0  0  0  0  0  0  0
    2.8546   -1.2304    0.0000 N   0  0  0  0  0  0  0  0  0  0  0  0
    1.4236   -0.4175    0.0000 C   0  0  0  0  0  0  0  0  0  0  0  0
    1.4211    0.4075    0.0000 C   0  0  0  0  0  0  0  0  0  0  0  0
    0.7113   -0.8336    0.0000 C   0  0  0  0  0  0  0  0  0  0  0  0
    0.7038    0.8150    0.0000 C   0  0  0  0  0  0  0  0  0  0  0  0
    2.1410   -0.8250    0.0000 C   0  0  0  0  0  0  0  0  0  0  0  0
    0.0014   -0.4218    0.0000 C   0  0  0  0  0  0  0  0  0  0  0  0
   -0.0086    0.3989    0.0000 C   0  0  0  0  0  0  0  0  0  0  0  0
  1  4  1  0
  2  7  3  0
  3  4  2  0
  3  5  1  0
  3  7  1  0
  4  6  1  0
  5  8  2  0
  6  9  2  0
  8  9  1  0
M  END

> <chembl_id>
CHEMBL3561681

> <chembl_pref_name>
None

$$$$

     RDKit          2D

  7  7  0  0  0  0  0  0  0  0999 V2000
    3.2788   -0.8533    0.0000 S   0  0  0  0  0  0  0  0  0  0  0  0
    3.6913    1.2413    0.0000 O   0  0  0  0  0  0  0  0  0  0  0  0
    3.0239   -0.0686    0.0000 N   0  0  0  0  0  0  0  0  0  0  0  0
    3.6913    0.4163    0.0000 C   0  0  0  0  0  0  0  0  0  0  0  0
    4.3588   -0.0686    0.0000 C   0  0  0  0  0  0  0  0  0  0  0  0
    4.1038   -0.8533    0.0000 C   0  0  0  0  0  0  0  0  0  0  0  0
    2.2393    0.1863    0.0000 C   0  0  0  0  0  0  0  0  0  0  0  0
  1  3  1  0
  1  6  1  0
  2  4  2  0
  3  4  1  0
  3  7  1  0
  4  5  1  0
  5  6  2  0
M  END

> <chembl_id>
CHEMBL1620780

> <chembl_pref_name>
None

$$$$

     RDKit          2D

 10 10  0  0  0  0  0  0  0  0999 V2000
    2.5934   -4.2039    0.0000 C   0  0  0  0  0  0  0  0  0  0  0  0
    2.5951   -3.0039    0.0000 C   0  0  0  0  0  0  0  0  0  0  0  0
    2.5973   -1.5031    0.0000 C   0  0  0  0  0  0  0  0  0  0  0  0
    1.2990   -0.7500    0.0000 N   0  0  0  0  0  0  0  0  0  0  0  0
    1.2990    0.7500    0.0000 C   0  0  0  0  0  0  0  0  0  0  0  0
    2.3383    1.3500    0.0000 N   0  0  0  0  0  0  0  0  0  0  0  0
    0.0000    1.5000    0.0000 C   0  0  0  0  0  0  0  0  0  0  0  0
   -1.2990    0.7500    0.0000 C   0  0  0  0  0  0  0  0  0  0  0  0
   -1.2990   -0.7500    0.0000 C   0  0  0  0  0  0  0  0  0  0  0  0
    0.0000   -1.5000    0.0000 C   0  0  0  0  0  0  0  0  0  0  0  0
  1  2  3  0
  2  3  1  0
  3  4  1  0
  4  5  2  3
  5  6  1  0
  5  7  1  0
  7  8  2  3
  8  9  1  0
  9 10  2  3
 10  4  1  0
M  CHG  1   4   1
M  END


> <chembl_id>
CHEMBL4597659

> <chembl_pref_name>
None

$$$$

     RDKit          2D

  9  9  0  0  0  0  0  0  0  0999 V2000
    2.8594    0.0000    0.0000 Cl  0  0  0  0  0  0  0  0  0  0  0  0
    2.8594   -1.6499    0.0000 O   0  0  0  0  0  0  0  0  0  0  0  0
    2.1445   -1.2381    0.0000 C   0  0  0  0  0  0  0  0  0  0  0  0
    2.1445   -0.4118    0.0000 C   0  0  0  0  0  0  0  0  0  0  0  0
    1.4297   -1.6499    0.0000 C   0  0  0  0  0  0  0  0  0  0  0  0
    0.7148   -1.2381    0.0000 C   0  0  0  0  0  0  0  0  0  0  0  0
    1.4297    0.0000    0.0000 C   0  0  0  0  0  0  0  0  0  0  0  0
    0.7148   -0.4118    0.0000 C   0  0  0  0  0  0  0  0  0  0  0  0
    0.0000   -1.6499    0.0000 C   0  0  0  0  0  0  0  0  0  0  0  0
  1  4  1  0
  2  3  1  0
  3  4  1  0
  3  5  2  0
  4  7  2  0
  5  6  1  0
  6  8  2  0
  6  9  1  0
  7  8  1  0
M  END

> <chembl_id>
CHEMBL3186024

> <chembl_pref_name>
None

$$$$

     RDKit          2D

  6  6  0  0  0  0  0  0  0  0999 V2000
    2.7417   -2.0625    0.0000 N   0  0  0  0  0  0  0  0  0  0  0  0
    2.7375   -3.7042    0.0000 N   0  0  0  0  0  0  0  0  0  0  0  0
    2.0250   -3.2917    0.0000 C   0  0  0  0  0  0  0  0  0  0  0  0
    2.0250   -2.4667    0.0000 C   0  0  0  0  0  0  0  0  0  0  0  0
    3.4542   -3.2917    0.0000 C   0  0  0  0  0  0  0  0  0  0  0  0
    3.4542   -2.4667    0.0000 C   0  0  0  0  0  0  0  0  0  0  0  0
  2  5  2  0
  3  4  2  0
  4  1  1  0
  5  6  1  0
  6  1  2  0
  3  2  1  0
M  END

> <chembl_id>
CHEMBL15797

> <chembl_pref_name>
PYRAZINE

$$$$

     RDKit          2D

  9  9  0  0  0  0  0  0  0  0999 V2000
   -0.8732   -1.1458    0.0000 C   0  0  0  0  0  0  0  0  0  0  0  0
   -0.1588   -1.5583    0.0000 C   0  0  0  0  0  0  0  0  0  0  0  0
    0.5557   -1.1458    0.0000 C   0  0  0  0  0  0  0  0  0  0  0  0
    0.5557   -0.3208    0.0000 C   0  0  0  0  0  0  0  0  0  0  0  0
   -0.1588    0.0917    0.0000 N   0  0  0  0  0  0  0  0  0  0  0  0
   -0.8732   -0.3208    0.0000 C   0  0  0  0  0  0  0  0  0  0  0  0
   -0.1588    0.9167    0.0000 C   0  0  0  0  0  0  0  0  0  0  0  0
    0.5557    1.3292    0.0000 C   0  0  0  0  0  0  0  0  0  0  0  0
    0.5557    2.1542    0.0000 C   0  0  0  0  0  0  0  0  0  0  0  0
  4  5  1  0
  5  6  2  0
  6  1  1  0
  2  3  1  0
  5  7  1  0
  7  8  1  0
  3  4  2  0
  8  9  1  0
  1  2  2  0
M  CHG  1   5   1
M  END

> <chembl_id>
CHEMBL1190126

> <chembl_pref_name>
None

$$$$

     RDKit          2D

  8  8  0  0  0  0  0  0  0  0999 V2000
    4.2792   -6.3292    0.0000 C   0  0  0  0  0  0  0  0  0  0  0  0
    4.7292   -5.6417    0.0000 C   0  0  0  0  0  0  0  0  0  0  0  0
    3.9292   -7.6167    0.0000 S   0  0  0  0  0  0  0  0  0  0  0  0
    4.5750   -7.1042    0.0000 C   0  0  0  0  0  0  0  0  0  0  0  0
    3.4542   -6.3750    0.0000 C   0  0  0  0  0  0  0  0  0  0  0  0
    3.2417   -7.1667    0.0000 C   0  0  0  0  0  0  0  0  0  0  0  0
    5.5542   -5.6917    0.0000 O   0  0  0  0  0  0  0  0  0  0  0  0
    4.3625   -4.9042    0.0000 O   0  0  0  0  0  0  0  0  0  0  0  0
  2  1  1  0
  3  4  1  0
  4  1  2  0
  5  1  1  0
  6  5  2  0
  7  2  2  0
  8  2  1  0
  6  3  1  0
M  END

> <chembl_id>
CHEMBL164585

> <chembl_pref_name>
None

$$$$

     RDKit          2D

  9  9  0  0  0  0  0  0  0  0999 V2000
    0.7160    0.0000    0.0000 O   0  0  0  0  0  0  0  0  0  0  0  0
    2.1480   -0.8250    0.0000 N   0  0  0  0  0  0  0  0  0  0  0  0
    1.4320   -1.2338    0.0000 C   0  0  0  0  0  0  0  0  0  0  0  0
    0.7160   -0.8250    0.0000 C   0  0  0  0  0  0  0  0  0  0  0  0
    1.4320   -2.0588    0.0000 C   0  0  0  0  0  0  0  0  0  0  0  0
    0.0000   -1.2338    0.0000 C   0  0  0  0  0  0  0  0  0  0  0  0
    0.7160   -2.4775    0.0000 C   0  0  0  0  0  0  0  0  0  0  0  0
    0.0000   -2.0588    0.0000 C   0  0  0  0  0  0  0  0  0  0  0  0
    2.1480   -2.4775    0.0000 C   0  0  0  0  0  0  0  0  0  0  0  0
  1  4  1  0
  2  3  1  0
  3  4  1  0
  3  5  2  0
  4  6  2  0
  5  7  1  0
  5  9  1  0
  6  8  1  0
  7  8  2  0
M  END

> <chembl_id>
CHEMBL3184934

> <chembl_pref_name>
None

$$$$

     RDKit          2D

  9  9  0  0  0  0  0  0  0  0999 V2000
   13.5915   -3.3417    0.0000 S   0  0  0  0  0  0  0  0  0  0  0  0
   14.4165   -3.3417    0.0000 C   0  0  0  0  0  0  0  0  0  0  0  0
   14.6732   -2.5576    0.0000 N   0  0  0  0  0  0  0  0  0  0  0  0
   14.0040   -2.0708    0.0000 C   0  0  0  0  0  0  0  0  0  0  0  0
   13.3389   -2.5576    0.0000 N   0  0  0  0  0  0  0  0  0  0  0  0
   14.0027   -1.2458    0.0000 C   0  0  0  0  0  0  0  0  0  0  0  0
   14.9006   -4.0097    0.0000 C   0  0  0  0  0  0  0  0  0  0  0  0
   14.5642   -4.7629    0.0000 N   0  0  0  0  0  0  0  0  0  0  0  0
   15.0484   -5.4309    0.0000 O   0  0  0  0  0  0  0  0  0  0  0  0
  1  2  1  0
  2  3  2  0
  3  4  1  0
  4  5  2  0
  5  1  1  0
  4  6  1  0
  2  7  1  0
  7  8  2  0
  8  9  1  0
M  END

> <chembl_id>
CHEMBL280945

> <chembl_pref_name>
None

$$$$

     RDKit          2D

  9  9  0  0  0  0  0  0  0  0999 V2000
    5.6500   -5.4958    0.0000 N   0  0  0  0  0  0  0  0  0  0  0  0
    6.3667   -4.2583    0.0000 C   0  0  0  0  0  0  0  0  0  0  0  0
    5.6500   -4.6708    0.0000 C   0  0  0  0  0  0  0  0  0  0  0  0
    6.3667   -5.9083    0.0000 C   0  0  0  0  0  0  0  0  0  0  0  0
    7.0792   -4.6708    0.0000 N   0  0  0  0  0  0  0  0  0  0  0  0
    7.0792   -5.4958    0.0000 N   0  0  0  0  0  0  0  0  0  0  0  0
    6.3667   -3.4333    0.0000 S   0  0  0  0  0  0  0  0  0  0  0  0
    4.9375   -4.2583    0.0000 O   0  0  0  0  0  0  0  0  0  0  0  0
    6.3667   -6.7333    0.0000 O   0  0  0  0  0  0  0  0  0  0  0  0
  2  3  1  0
  3  1  1  0
  4  1  1  0
  5  6  1  0
  6  4  1  0
  7  2  2  0
  8  3  2  0
  9  4  2  0
  2  5  1  0
M  END

> <chembl_id>
CHEMBL1451986

> <chembl_pref_name>
None

$$$$

     RDKit          2D

  9  9  0  0  0  0  0  0  0  0999 V2000
    0.1732    0.4189    0.0000 S   0  0  0  0  0  0  0  0  0  0  0  0
   -0.4942   -0.8911    0.0000 N   0  0  0  0  0  0  0  0  0  0  0  0
    0.8406   -0.8911    0.0000 N   0  0  0  0  0  0  0  0  0  0  0  0
    0.5857   -1.6757    0.0000 N   0  0  0  0  0  0  0  0  0  0  0  0
    0.1732   -0.4061    0.0000 C   0  0  0  0  0  0  0  0  0  0  0  0
   -0.2393   -1.6757    0.0000 C   0  0  0  0  0  0  0  0  0  0  0  0
   -1.2789   -0.6361    0.0000 C   0  0  0  0  0  0  0  0  0  0  0  0
   -1.4504    0.1709    0.0000 C   0  0  0  0  0  0  0  0  0  0  0  0
   -2.2350    0.4258    0.0000 C   0  0  0  0  0  0  0  0  0  0  0  0
  1  5  1  0
  2  5  1  0
  2  6  1  0
  2  7  1  0
  3  4  1  0
  3  5  2  0
  4  6  2  0
  7  8  1  0
  8  9  2  0
M  END

> <chembl_id>
CHEMBL1540187

> <chembl_pref_name>
None

$$$$

     RDKit          2D

 11 12  0  0  0  0  0  0  0  0999 V2000
   14.0486    0.5292    0.0000 C   0  0  0  0  0  0  0  0  0  0  0  0
   14.0474   -0.2982    0.0000 C   0  0  0  0  0  0  0  0  0  0  0  0
   14.7622   -0.7110    0.0000 C   0  0  0  0  0  0  0  0  0  0  0  0
   15.4787   -0.2977    0.0000 C   0  0  0  0  0  0  0  0  0  0  0  0
   15.4758    0.5328    0.0000 C   0  0  0  0  0  0  0  0  0  0  0  0
   14.7604    0.9420    0.0000 C   0  0  0  0  0  0  0  0  0  0  0  0
   16.1887    0.9480    0.0000 C   0  0  0  0  0  0  0  0  0  0  0  0
   17.0124    0.9533    0.0000 C   0  0  0  0  0  0  0  0  0  0  0  0
   16.5972    1.6662    0.0000 C   0  0  0  0  0  0  0  0  0  0  0  0
   16.5929    2.4912    0.0000 N   0  0  0  0  0  0  0  0  0  0  0  0
   15.8764    2.9000    0.0000 C   0  0  0  0  0  0  0  0  0  0  0  0
  5  6  2  0
  6  1  1  0
  1  2  2  0
  7  5  1  6
  8  7  1  0
  9  8  1  0
  7  9  1  0
  3  4  2  0
  4  5  1  0
  9 10  1  1
  2  3  1  0
 10 11  1  0
M  END

> <chembl_id>
CHEMBL509272

> <chembl_pref_name>
None

$$$$

     RDKit          2D

  8  8  0  0  0  0  0  0  0  0999 V2000
    3.7042   -4.4875    0.0000 C   0  0  0  0  0  0  0  0  0  0  0  0
    3.2125   -5.1542    0.0000 N   0  0  0  0  0  0  0  0  0  0  0  0
    3.2167   -3.8167    0.0000 N   0  0  0  0  0  0  0  0  0  0  0  0
    2.4292   -4.0667    0.0000 C   0  0  0  0  0  0  0  0  0  0  0  0
    2.4292   -4.8917    0.0000 C   0  0  0  0  0  0  0  0  0  0  0  0
    4.5292   -4.4917    0.0000 S   0  0  0  0  0  0  0  0  0  0  0  0
    3.4667   -5.9375    0.0000 C   0  0  0  0  0  0  0  0  0  0  0  0
    4.9375   -5.2042    0.0000 C   0  0  0  0  0  0  0  0  0  0  0  0
  2  1  1  0
  3  1  2  0
  4  3  1  0
  5  2  1  0
  6  1  1  0
  7  2  1  0
  8  6  1  0
  5  4  2  0
M  END

> <chembl_id>
CHEMBL136263

> <chembl_pref_name>
None

$$$$

     RDKit          2D

 10 10  0  0  0  0  0  0  0  0999 V2000
    0.7859    1.1963    0.0000 O   0  0  0  0  0  0  0  0  0  0  0  0
   -0.6430    2.0212    0.0000 O   0  0  0  0  0  0  0  0  0  0  0  0
    0.0714   -0.0412    0.0000 C   0  0  0  0  0  0  0  0  0  0  0  0
    0.0714    0.7838    0.0000 C   0  0  0  0  0  0  0  0  0  0  0  0
    0.7859   -0.4537    0.0000 C   0  0  0  0  0  0  0  0  0  0  0  0
   -0.6430   -0.4538    0.0000 C   0  0  0  0  0  0  0  0  0  0  0  0
   -0.6430    1.1962    0.0000 C   0  0  0  0  0  0  0  0  0  0  0  0
    0.7859   -1.2787    0.0000 C   0  0  0  0  0  0  0  0  0  0  0  0
   -0.6430   -1.2788    0.0000 C   0  0  0  0  0  0  0  0  0  0  0  0
    0.0714   -1.6913    0.0000 C   0  0  0  0  0  0  0  0  0  0  0  0
  1  4  2  0
  2  7  2  0
  3  4  1  0
  3  5  2  0
  3  6  1  0
  4  7  1  0
  5  8  1  0
  6  9  2  0
  8 10  2  0
  9 10  1  0
M  END

> <chembl_id>
CHEMBL233632

> <chembl_pref_name>
PHENYLGLYOXAL

$$$$

     RDKit          2D

  9  9  0  0  0  0  0  0  0  0999 V2000
   14.5609  -15.1542    0.0000 C   0  0  0  0  0  0  0  0  0  0  0  0
   14.9734  -14.4425    0.0000 C   0  0  0  0  0  0  0  0  0  0  0  0
   15.7984  -14.4425    0.0000 C   0  0  0  0  0  0  0  0  0  0  0  0
   16.2109  -15.1542    0.0000 C   0  0  0  0  0  0  0  0  0  0  0  0
   15.7984  -15.8700    0.0000 C   0  0  0  0  0  0  0  0  0  0  0  0
   14.9734  -15.8700    0.0000 C   0  0  0  0  0  0  0  0  0  0  0  0
   13.7359  -15.1542    0.0000 C   0  0  0  0  0  0  0  0  0  0  0  0
   13.3234  -15.8700    0.0000 C   0  0  0  0  0  0  0  0  0  0  0  0
   12.4984  -15.8700    0.0000 C   0  0  0  0  0  0  0  0  0  0  0  0
  1  2  1  0
  2  3  2  0
  3  4  1  0
  4  5  2  0
  5  6  1  0
  1  6  2  0
  7  8  1  0
  8  9  2  0
  1  7  1  0
M  END

> <chembl_id>
CHEMBL501879

> <chembl_pref_name>
ALLYLBENZENE

$$$$

     RDKit          2D

  7  7  0  0  0  0  0  0  0  0999 V2000
    7.8568    0.7982    0.0000 C   0  0  0  0  0  0  0  0  0  0  0  0
    7.8568   -0.0273    0.0000 C   0  0  0  0  0  0  0  0  0  0  0  0
    8.5689   -0.4361    0.0000 N   0  0  0  0  0  0  0  0  0  0  0  0
    9.2809   -0.0273    0.0000 C   0  0  0  0  0  0  0  0  0  0  0  0
    9.2809    0.7982    0.0000 N   0  0  0  0  0  0  0  0  0  0  0  0
    8.5689    1.2147    0.0000 C   0  0  0  0  0  0  0  0  0  0  0  0
    9.9952   -0.4409    0.0000 S   0  0  0  0  0  0  0  0  0  0  0  0
  1  2  2  0
  1  6  1  0
  2  3  1  0
  3  4  2  0
  4  5  1  0
  5  6  2  0
  4  7  1  0
M  END

> <chembl_id>
CHEMBL1688952

> <chembl_pref_name>
2-MERCAPTOPYRIMIDINE

$$$$

     RDKit          2D

 11 11  0  0  0  0  0  0  0  0999 V2000
    6.7792   -8.5667    0.0000 C   0  0  0  0  0  0  0  0  0  0  0  0
    6.7875   -7.7417    0.0000 N   0  0  0  0  0  0  0  0  0  0  0  0
    6.0667   -8.9792    0.0000 N   0  0  0  0  0  0  0  0  0  0  0  0
    5.3542   -8.5667    0.0000 C   0  0  0  0  0  0  0  0  0  0  0  0
    4.6417   -8.9792    0.0000 C   0  0  0  0  0  0  0  0  0  0  0  0
    7.5000   -8.9792    0.0000 N   0  0  0  0  0  0  0  0  0  0  0  0
    5.3542   -7.7417    0.0000 C   0  0  0  0  0  0  0  0  0  0  0  0
    4.6417   -9.8042    0.0000 C   0  0  0  0  0  0  0  0  0  0  0  0
    3.9292   -8.5667    0.0000 C   0  0  0  0  0  0  0  0  0  0  0  0
    4.6417   -7.3292    0.0000 C   0  0  0  0  0  0  0  0  0  0  0  0
    3.9292   -7.7417    0.0000 C   0  0  0  0  0  0  0  0  0  0  0  0
  2  1  2  0
  3  1  1  0
  4  3  1  0
  5  4  1  0
  6  1  1  0
  7  4  2  0
  8  5  1  0
  9  5  2  0
 10  7  1  0
 11 10  2  0
  9 11  1  0
M  END

> <chembl_id>
CHEMBL1160769

> <chembl_pref_name>
None

$$$$

     RDKit          2D

 10 10  0  0  0  0  0  0  0  0999 V2000
    6.4864   -7.3082    0.0000 C   0  0  0  0  0  0  0  0  0  0  0  0
    6.4853   -8.1350    0.0000 C   0  0  0  0  0  0  0  0  0  0  0  0
    7.1997   -8.5477    0.0000 C   0  0  0  0  0  0  0  0  0  0  0  0
    7.9156   -8.1346    0.0000 C   0  0  0  0  0  0  0  0  0  0  0  0
    7.9128   -7.3045    0.0000 C   0  0  0  0  0  0  0  0  0  0  0  0
    7.1979   -6.8956    0.0000 C   0  0  0  0  0  0  0  0  0  0  0  0
    7.1954   -6.0711    0.0000 C   0  0  0  0  0  0  0  0  0  0  0  0
    7.9083   -5.6568    0.0000 O   0  0  0  0  0  0  0  0  0  0  0  0
    6.4801   -5.6610    0.0000 O   0  0  0  0  0  0  0  0  0  0  0  0
    7.1995   -9.3722    0.0000 F   0  0  0  0  0  0  0  0  0  0  0  0
  2  3  1  0
  5  6  2  0
  6  1  1  0
  1  2  2  0
  6  7  1  0
  3  4  2  0
  7  8  1  0
  7  9  2  0
  4  5  1  0
  3 10  1  0
M  ISO  1  10  18
M  END

> <chembl_id>
CHEMBL1775001

> <chembl_pref_name>
None

$$$$

     RDKit          2D

 10 10  0  0  0  0  0  0  0  0999 V2000
   -2.9500    0.2208    0.0000 C   0  0  0  0  0  0  0  0  0  0  0  0
   -3.6708    0.6333    0.0000 C   0  0  0  0  0  0  0  0  0  0  0  0
   -2.2375    0.6458    0.0000 O   0  0  0  0  0  0  0  0  0  0  0  0
   -3.6708    1.4583    0.0000 C   0  0  0  0  0  0  0  0  0  0  0  0
   -2.9500   -0.6042    0.0000 C   0  0  0  0  0  0  0  0  0  0  0  0
   -4.3833    0.2208    0.0000 C   0  0  0  0  0  0  0  0  0  0  0  0
   -1.5208    0.2333    0.0000 C   0  0  0  0  0  0  0  0  0  0  0  0
   -1.5125   -0.5917    0.0000 C   0  0  0  0  0  0  0  0  0  0  0  0
   -3.6708   -1.0167    0.0000 C   0  0  0  0  0  0  0  0  0  0  0  0
   -4.3833   -0.6042    0.0000 C   0  0  0  0  0  0  0  0  0  0  0  0
  2  1  2  0
  3  1  1  0
  4  2  1  0
  5  1  1  0
  6  2  1  0
  7  3  1  0
  8  7  1  0
  9  5  2  0
 10  9  1  0
 10  6  2  0
M  END

> <chembl_id>
CHEMBL145657

> <chembl_pref_name>
None

$$$$

     RDKit          2D

 10 10  0  0  0  0  0  0  0  0999 V2000
    7.4000   -8.4917    0.0000 C   0  0  0  0  0  0  0  0  0  0  0  0
    7.4000   -7.6667    0.0000 N   0  0  0  0  0  0  0  0  0  0  0  0
    5.2542   -6.4250    0.0000 N   0  0  0  0  0  0  0  0  0  0  0  0
    6.6792   -7.2542    0.0000 C   0  0  0  0  0  0  0  0  0  0  0  0
    8.1167   -8.9000    0.0000 N   0  0  0  0  0  0  0  0  0  0  0  0
    6.6875   -8.9042    0.0000 N   0  0  0  0  0  0  0  0  0  0  0  0
    5.9667   -7.6667    0.0000 C   0  0  0  0  0  0  0  0  0  0  0  0
    6.6792   -6.4250    0.0000 C   0  0  0  0  0  0  0  0  0  0  0  0
    5.2542   -7.2542    0.0000 C   0  0  0  0  0  0  0  0  0  0  0  0
    5.9667   -6.0125    0.0000 C   0  0  0  0  0  0  0  0  0  0  0  0
  2  1  1  0
  3 10  2  0
  4  2  1  0
  5  1  2  0
  6  1  1  0
  7  4  1  0
  8  4  2  0
  9  7  2  0
 10  8  1  0
  9  3  1  0
M  END

> <chembl_id>
CHEMBL298550

> <chembl_pref_name>
None

$$$$

     RDKit          2D

  9  9  0  0  0  0  0  0  0  0999 V2000
   10.5515   -2.0119    0.0000 C   0  0  0  0  0  0  0  0  0  0  0  0
   11.2552   -2.4406    0.0000 C   0  0  0  0  0  0  0  0  0  0  0  0
   11.2336   -3.2653    0.0000 C   0  0  0  0  0  0  0  0  0  0  0  0
   10.5085   -3.6613    0.0000 C   0  0  0  0  0  0  0  0  0  0  0  0
    9.8046   -3.2281    0.0000 C   0  0  0  0  0  0  0  0  0  0  0  0
    9.8262   -2.4034    0.0000 C   0  0  0  0  0  0  0  0  0  0  0  0
   10.5729   -1.1871    0.0000 O   0  0  0  0  0  0  0  0  0  0  0  0
   10.4869   -4.4860    0.0000 O   0  0  0  0  0  0  0  0  0  0  0  0
   11.1906   -4.9147    0.0000 C   0  0  0  0  0  0  0  0  0  0  0  0
  1  2  1  0
  2  3  2  0
  3  4  1  0
  4  5  2  0
  5  6  1  0
  1  6  2  0
  1  7  1  0
  8  9  1  0
  4  8  1  0
M  END

> <chembl_id>
CHEMBL544

> <chembl_pref_name>
MEQUINOL

$$$$

     RDKit          2D

 11 11  0  0  0  0  0  0  0  0999 V2000
    1.2990   -0.7500    0.0000 C   0  0  0  0  0  0  0  0  0  0  0  0
    1.2990    0.7500    0.0000 C   0  0  0  0  0  0  0  0  0  0  0  0
    0.0000    1.5000    0.0000 C   0  0  0  0  0  0  0  0  0  0  0  0
   -1.2990    0.7500    0.0000 C   0  0  0  0  0  0  0  0  0  0  0  0
   -1.2990   -0.7500    0.0000 C   0  0  0  0  0  0  0  0  0  0  0  0
    0.0000   -1.5000    0.0000 C   0  0  0  0  0  0  0  0  0  0  0  0
   -0.0031    3.0008    0.0000 C   0  0  0  0  0  0  0  0  0  0  0  0
   -0.0031   -3.0008    0.0000 C   0  0  0  0  0  0  0  0  0  0  0  0
    1.0351   -3.6026    0.0000 N   0  0  0  0  0  0  0  0  0  0  0  0
   -1.0432   -3.5994    0.0000 N   0  0  0  0  0  0  0  0  0  0  0  0
   -1.0432    3.5993    0.0000 N   0  0  0  0  0  0  0  0  0  0  0  0
  1  2  2  0
  2  3  1  0
  3  4  2  0
  4  5  1  0
  1  6  1  0
  5  6  2  0
  3  7  1  0
  6  8  1  0
  8  9  1  0
  8 10  2  0
  7 11  1  0
M  END

> <chembl_id>
CHEMBL187301

> <chembl_pref_name>
None

$$$$

     RDKit          2D

  9  9  0  0  0  0  0  0  0  0999 V2000
    7.9032   -8.1334    0.0000 C   0  0  0  0  0  0  0  0  0  0  0  0
    7.9021   -8.9596    0.0000 C   0  0  0  0  0  0  0  0  0  0  0  0
    8.6158   -9.3718    0.0000 N   0  0  0  0  0  0  0  0  0  0  0  0
    9.3311   -8.9591    0.0000 C   0  0  0  0  0  0  0  0  0  0  0  0
    9.3283   -8.1299    0.0000 C   0  0  0  0  0  0  0  0  0  0  0  0
    8.6140   -7.7213    0.0000 N   0  0  0  0  0  0  0  0  0  0  0  0
   10.0402   -7.7153    0.0000 C   0  0  0  0  0  0  0  0  0  0  0  0
   10.7551   -8.1245    0.0000 N   0  0  0  0  0  0  0  0  0  0  0  0
   10.0371   -6.8915    0.0000 O   0  0  0  0  0  0  0  0  0  0  0  0
  4  5  1  0
  2  3  1  0
  5  6  2  0
  6  1  1  0
  1  2  2  0
  5  7  1  0
  3  4  2  0
  7  8  1  0
  7  9  2  0
M  END

> <chembl_id>
CHEMBL614

> <chembl_pref_name>
PYRAZINAMIDE

$$$$

     RDKit          2D

 10 10  0  0  0  0  0  0  0  0999 V2000
    5.0679  -73.0714    0.0000 C   0  0  0  0  0  0  0  0  0  0  0  0
    4.3534  -73.4839    0.0000 C   0  0  0  0  0  0  0  0  0  0  0  0
    4.3534  -74.3089    0.0000 C   0  0  0  0  0  0  0  0  0  0  0  0
    5.0679  -74.7214    0.0000 C   0  0  0  0  0  0  0  0  0  0  0  0
    5.7824  -74.3089    0.0000 C   0  0  0  0  0  0  0  0  0  0  0  0
    5.7824  -73.4839    0.0000 C   0  0  0  0  0  0  0  0  0  0  0  0
    6.4968  -73.0714    0.0000 O   0  0  0  0  0  0  0  0  0  0  0  0
    7.2113  -73.4839    0.0000 C   0  0  0  0  0  0  0  0  0  0  0  0
    7.9258  -73.0714    0.0000 C   0  0  0  0  0  0  0  0  0  0  0  0
    8.6402  -73.4839    0.0000 O   0  0  0  0  0  0  0  0  0  0  0  0
  1  2  1  0
  1  6  2  0
  2  3  2  0
  3  4  1  0
  4  5  2  0
  5  6  1  0
  6  7  1  0
  7  8  1  0
  8  9  1  0
  9 10  1  0
M  END

> <chembl_id>
CHEMBL1229846

> <chembl_pref_name>
PHENOXYETHANOL

$$$$

     RDKit          2D

 10 10  0  0  0  0  0  0  0  0999 V2000
   -0.7375   -0.8042    0.0000 N   0  0  0  0  0  0  0  0  0  0  0  0
   -1.3583   -1.1667    0.0000 N   0  0  0  0  0  0  0  0  0  0  0  0
    1.1167   -1.1667    0.0000 C   0  0  0  0  0  0  0  0  0  0  0  0
   -0.1208   -1.1625    0.0000 C   0  0  0  0  0  0  0  0  0  0  0  0
    0.5000   -0.8042    0.0000 C   0  0  0  0  0  0  0  0  0  0  0  0
    1.1167   -1.8792    0.0000 C   0  0  0  0  0  0  0  0  0  0  0  0
    1.7292   -0.8042    0.0000 C   0  0  0  0  0  0  0  0  0  0  0  0
    2.3500   -1.1625    0.0000 C   0  0  0  0  0  0  0  0  0  0  0  0
    1.7292   -2.2292    0.0000 C   0  0  0  0  0  0  0  0  0  0  0  0
    2.3417   -1.8792    0.0000 C   0  0  0  0  0  0  0  0  0  0  0  0
  2  1  1  0
  3  5  1  0
  4  1  1  0
  5  4  1  0
  6  3  2  0
  7  3  1  0
  8  7  2  0
  9  6  1  0
 10  9  2  0
 10  8  1  0
M  END

> <chembl_id>
CHEMBL1089

> <chembl_pref_name>
PHENELZINE

$$$$

     RDKit          2D

  9  9  0  0  0  0  0  0  0  0999 V2000
    0.2709   -2.3023    0.0000 O   0  0  0  0  0  0  0  0  0  0  0  0
   -1.0054    1.6258    0.0000 O   0  0  0  0  0  0  0  0  0  0  0  0
    0.3765   -0.0966    0.0000 N   0  0  0  0  0  0  0  0  0  0  0  0
   -0.7034   -0.8812    0.0000 N   0  0  0  0  0  0  0  0  0  0  0  0
   -0.9584   -0.0966    0.0000 N   0  0  0  0  0  0  0  0  0  0  0  0
    0.1216   -0.8812    0.0000 C   0  0  0  0  0  0  0  0  0  0  0  0
   -0.2909    0.3883    0.0000 C   0  0  0  0  0  0  0  0  0  0  0  0
    0.6065   -1.5486    0.0000 C   0  0  0  0  0  0  0  0  0  0  0  0
   -0.2909    1.2133    0.0000 C   0  0  0  0  0  0  0  0  0  0  0  0
  1  8  1  0
  2  9  1  0
  3  6  1  0
  3  7  2  0
  4  5  1  0
  4  6  2  0
  5  7  1  0
  6  8  1  0
  7  9  1  0
M  END

> <chembl_id>
CHEMBL1501710

> <chembl_pref_name>
None

$$$$

     RDKit          2D

 10 10  0  0  0  0  0  0  0  0999 V2000
   -0.2250   -1.6417    0.0000 N   0  0  0  0  0  0  0  0  0  0  0  0
    0.1917   -0.3667    0.0000 N   0  0  0  0  0  0  0  0  0  0  0  0
   -0.4833   -0.8500    0.0000 C   0  0  0  0  0  0  0  0  0  0  0  0
    0.8792    1.7083    0.0000 C   0  0  0  0  0  0  0  0  0  0  0  0
    0.8917    0.8833    0.0000 C   0  0  0  0  0  0  0  0  0  0  0  0
    0.6042   -1.6417    0.0000 C   0  0  0  0  0  0  0  0  0  0  0  0
    0.8625   -0.8500    0.0000 C   0  0  0  0  0  0  0  0  0  0  0  0
    0.1542    2.1083    0.0000 O   0  0  0  0  0  0  0  0  0  0  0  0
    0.1875    0.4583    0.0000 C   0  0  0  0  0  0  0  0  0  0  0  0
    1.5875    2.1458    0.0000 O   0  0  0  0  0  0  0  0  0  0  0  0
  2  3  1  0
  3  1  2  0
  4  5  1  0
  5  9  1  0
  6  1  1  0
  7  6  2  0
  8  4  2  0
  9  2  1  0
 10  4  1  0
  2  7  1  0
M  END

> <chembl_id>
CHEMBL20724

> <chembl_pref_name>
None

$$$$

     RDKit          2D

 10 10  0  0  0  0  0  0  0  0999 V2000
   11.8097  -12.1484    0.0000 C   0  0  0  0  0  0  0  0  0  0  0  0
   11.8086  -12.9754    0.0000 C   0  0  0  0  0  0  0  0  0  0  0  0
   12.5230  -13.3881    0.0000 C   0  0  0  0  0  0  0  0  0  0  0  0
   13.2391  -12.9749    0.0000 C   0  0  0  0  0  0  0  0  0  0  0  0
   13.2363  -12.1448    0.0000 C   0  0  0  0  0  0  0  0  0  0  0  0
   12.5212  -11.7359    0.0000 C   0  0  0  0  0  0  0  0  0  0  0  0
   13.9489  -11.7298    0.0000 C   0  0  0  0  0  0  0  0  0  0  0  0
   13.9458  -10.9052    0.0000 O   0  0  0  0  0  0  0  0  0  0  0  0
   11.0941  -13.3871    0.0000 O   0  0  0  0  0  0  0  0  0  0  0  0
   11.0934  -14.2117    0.0000 C   0  0  0  0  0  0  0  0  0  0  0  0
  2  3  1  0
  5  6  2  0
  6  1  1  0
  1  2  2  0
  5  7  1  0
  3  4  2  0
  7  8  2  0
  2  9  1  0
  4  5  1  0
  9 10  1  0
M  END

> <chembl_id>
CHEMBL161598

> <chembl_pref_name>
ANISALDEHYDE

$$$$

     RDKit          2D

  8  8  0  0  0  0  0  0  0  0999 V2000
    1.4167   -5.8667    0.0000 N   0  0  0  0  0  0  0  0  0  0  0  0
    1.9417   -5.5667    0.0000 C   0  0  0  0  0  0  0  0  0  0  0  0
    1.9417   -4.9667    0.0000 C   0  0  0  0  0  0  0  0  0  0  0  0
    2.4542   -4.6625    0.0000 O   0  0  0  0  0  0  0  0  0  0  0  0
    0.9042   -5.5667    0.0000 C   0  0  0  0  0  0  0  0  0  0  0  0
    2.4625   -5.8667    0.0000 C   0  0  0  0  0  0  0  0  0  0  0  0
    1.4167   -4.6667    0.0000 C   0  0  0  0  0  0  0  0  0  0  0  0
    0.9042   -4.9667    0.0000 C   0  0  0  0  0  0  0  0  0  0  0  0
  2  1  2  0
  3  2  1  0
  4  3  1  0
  5  1  1  0
  6  2  1  0
  7  8  1  0
  8  5  2  0
  3  7  2  0
M  END

> <chembl_id>
CHEMBL134348

> <chembl_pref_name>
None

$$$$

     RDKit          2D

  9  9  0  0  0  0  0  0  0  0999 V2000
   -1.2250  -17.5042    0.0000 N   0  0  0  0  0  0  0  0  0  0  0  0
   -1.9458  -17.0917    0.0000 C   0  0  0  0  0  0  0  0  0  0  0  0
   -1.9458  -16.2667    0.0000 C   0  0  0  0  0  0  0  0  0  0  0  0
   -0.5125  -17.0917    0.0000 C   0  0  0  0  0  0  0  0  0  0  0  0
   -0.5125  -16.2667    0.0000 N   0  0  0  0  0  0  0  0  0  0  0  0
   -1.2250  -15.8542    0.0000 C   0  0  0  0  0  0  0  0  0  0  0  0
    0.2000  -17.5042    0.0000 O   0  0  0  0  0  0  0  0  0  0  0  0
   -2.6583  -17.5042    0.0000 N   0  0  0  0  0  0  0  0  0  0  0  0
   -2.6583  -15.8542    0.0000 F   0  0  0  0  0  0  0  0  0  0  0  0
  2  1  1  0
  3  2  2  0
  4  1  1  0
  5  4  1  0
  6  5  2  0
  7  4  2  0
  8  2  1  0
  9  3  1  0
  3  6  1  0
M  END

> <chembl_id>
CHEMBL1463

> <chembl_pref_name>
FLUCYTOSINE

$$$$

     RDKit          2D

 10 10  0  0  0  0  0  0  0  0999 V2000
   -2.6958    1.1750    0.0000 N   0  0  0  0  0  0  0  0  0  0  0  0
   -1.9833    1.5875    0.0000 C   0  0  0  0  0  0  0  0  0  0  0  0
   -3.4083    1.5958    0.0000 C   0  0  0  0  0  0  0  0  0  0  0  0
   -2.6958    0.3583    0.0000 C   0  0  0  0  0  0  0  0  0  0  0  0
   -1.2708    1.1750    0.0000 C   0  0  0  0  0  0  0  0  0  0  0  0
    0.1625    1.1750    0.0000 O   0  0  0  0  0  0  0  0  0  0  0  0
   -0.5500    1.5875    0.0000 C   0  0  0  0  0  0  0  0  0  0  0  0
   -3.4083   -0.0542    0.0000 C   0  0  0  0  0  0  0  0  0  0  0  0
   -4.1208    1.1833    0.0000 C   0  0  0  0  0  0  0  0  0  0  0  0
   -4.1208    0.3583    0.0000 C   0  0  0  0  0  0  0  0  0  0  0  0
  2  1  1  0
  3  1  2  0
  4  1  1  0
  5  2  1  0
  6  7  1  0
  7  5  1  0
  8  4  2  0
  9  3  1  0
 10  8  1  0
  9 10  2  0
M  CHG  1   1   1
M  END

> <chembl_id>
CHEMBL135799

> <chembl_pref_name>
None

$$$$

     RDKit          2D

  8  8  0  0  0  0  0  0  0  0999 V2000
    3.2203   -3.4332    0.0000 C   0  0  0  0  0  0  0  0  0  0  0  0
    3.2281   -4.2585    0.0000 C   0  0  0  0  0  0  0  0  0  0  0  0
    3.9463   -4.6644    0.0000 C   0  0  0  0  0  0  0  0  0  0  0  0
    3.9541   -5.4895    0.0000 C   0  0  0  0  0  0  0  0  0  0  0  0
    3.2437   -5.9089    0.0000 C   0  0  0  0  0  0  0  0  0  0  0  0
    2.5255   -5.5031    0.0000 C   0  0  0  0  0  0  0  0  0  0  0  0
    2.5178   -4.6778    0.0000 C   0  0  0  0  0  0  0  0  0  0  0  0
    2.5021   -3.0274    0.0000 O   0  0  0  0  0  0  0  0  0  0  0  0
  1  2  1  0
  2  3  1  0
  3  4  2  0
  4  5  1  0
  5  6  2  0
  6  7  1  0
  2  7  2  0
  1  8  1  0
M  END

> <chembl_id>
CHEMBL720

> <chembl_pref_name>
BENZYL ALCOHOL

$$$$

     RDKit          2D

 10 10  0  0  0  0  0  0  0  0999 V2000
   -1.1375    1.3958    0.0000 N   0  0  0  0  0  0  0  0  0  0  0  0
   -1.1333    0.0583    0.0000 N   0  0  0  0  0  0  0  0  0  0  0  0
   -1.6208    0.7250    0.0000 C   0  0  0  0  0  0  0  0  0  0  0  0
   -0.3500    1.1458    0.0000 C   0  0  0  0  0  0  0  0  0  0  0  0
   -0.3458    0.3208    0.0000 C   0  0  0  0  0  0  0  0  0  0  0  0
    2.5000    1.1583    0.0000 O   0  0  0  0  0  0  0  0  0  0  0  0
    0.3625    1.5625    0.0000 C   0  0  0  0  0  0  0  0  0  0  0  0
    1.7875    1.5708    0.0000 C   0  0  0  0  0  0  0  0  0  0  0  0
    3.2125    1.5708    0.0000 C   0  0  0  0  0  0  0  0  0  0  0  0
    1.0750    1.1500    0.0000 C   0  0  0  0  0  0  0  0  0  0  0  0
  2  3  1  0
  3  1  2  0
  4  1  1  0
  5  4  2  0
  6  8  1  0
  7  4  1  0
  8 10  1  0
  9  6  1  0
 10  7  1  0
  5  2  1  0
M  END

> <chembl_id>
CHEMBL1179657

> <chembl_pref_name>
None

$$$$

     RDKit          2D

 11 12  0  0  0  0  0  0  0  0999 V2000
   -1.1397    0.9875    0.0000 C   0  0  0  0  0  0  0  0  0  0  0  0
   -1.8513    0.5656    0.0000 C   0  0  0  0  0  0  0  0  0  0  0  0
   -1.8408   -0.2597    0.0000 C   0  0  0  0  0  0  0  0  0  0  0  0
   -1.1194   -0.6641    0.0000 C   0  0  0  0  0  0  0  0  0  0  0  0
   -0.4071   -0.2373    0.0000 C   0  0  0  0  0  0  0  0  0  0  0  0
   -0.4211    0.5866    0.0000 C   0  0  0  0  0  0  0  0  0  0  0  0
    0.3141   -0.6378    0.0000 C   0  0  0  0  0  0  0  0  0  0  0  0
    0.7395   -1.3429    0.0000 C   0  0  0  0  0  0  0  0  0  0  0  0
    1.1401   -0.6217    0.0000 C   0  0  0  0  0  0  0  0  0  0  0  0
    1.8469   -0.1965    0.0000 C   0  0  0  0  0  0  0  0  0  0  0  0
    2.5686   -0.5960    0.0000 N   0  0  0  0  0  0  0  0  0  0  0  0
  1  2  2  0
  2  3  1  0
  3  4  2  0
  4  5  1  0
  5  6  2  0
  6  1  1  0
  7  5  1  1
  8  7  1  0
  9  8  1  0
  7  9  1  0
  9 10  1  6
 10 11  1  0
M  END

> <chembl_id>
CHEMBL1186092

> <chembl_pref_name>
None

$$$$

     RDKit          2D

 11 12  0  0  0  0  0  0  0  0999 V2000
   -1.2341   -0.3375    0.0000 N   0  0  0  0  0  0  0  0  0  0  0  0
    0.1949   -0.3375    0.0000 C   0  0  0  0  0  0  0  0  0  0  0  0
   -0.5196   -0.7500    0.0000 C   0  0  0  0  0  0  0  0  0  0  0  0
    0.1949    0.4875    0.0000 C   0  0  0  0  0  0  0  0  0  0  0  0
   -0.5196    0.9000    0.0000 C   0  0  0  0  0  0  0  0  0  0  0  0
   -1.2341    0.4875    0.0000 C   0  0  0  0  0  0  0  0  0  0  0  0
   -1.9486   -0.7500    0.0000 C   0  0  0  0  0  0  0  0  0  0  0  0
    0.9093   -0.7500    0.0000 C   0  0  0  0  0  0  0  0  0  0  0  0
    0.9093    0.9000    0.0000 C   0  0  0  0  0  0  0  0  0  0  0  0
    1.6238   -0.3375    0.0000 C   0  0  0  0  0  0  0  0  0  0  0  0
    1.6238    0.4875    0.0000 C   0  0  0  0  0  0  0  0  0  0  0  0
  1  3  1  0
  2  3  1  0
  2  4  1  0
  4  5  1  0
  1  6  1  0
  5  6  1  0
  1  7  1  0
  2  8  2  0
  4  9  2  0
  8 10  1  0
  9 11  1  0
 10 11  2  0
M  END

> <chembl_id>
CHEMBL22053

> <chembl_pref_name>
None

$$$$

     RDKit          2D

 11 11  0  0  1  0  0  0  0  0999 V2000
    1.7309    0.0000    0.0000 N   0  0  0  0  0  0  0  0  0  0  0  0
    2.1502   -0.7167    0.0000 C   0  0  0  0  0  0  0  0  0  0  0  0
    1.4334   -1.1252    0.0000 C   0  0  0  0  0  0  0  0  0  0  0  0
    1.4334   -1.9494    0.0000 C   0  0  0  0  0  0  0  0  0  0  0  0
    0.7167   -0.7167    0.0000 C   0  0  0  0  0  0  0  0  0  0  0  0
    2.8669   -0.2974    0.0000 C   0  0  0  0  0  0  0  0  0  0  0  0
    0.7167   -2.3687    0.0000 C   0  0  0  0  0  0  0  0  0  0  0  0
    0.0000   -1.1360    0.0000 C   0  0  0  0  0  0  0  0  0  0  0  0
    0.0000   -1.9602    0.0000 C   0  0  0  0  0  0  0  0  0  0  0  0
    3.5836   -0.7060    0.0000 C   0  0  0  0  0  0  0  0  0  0  0  0
    2.5694   -1.4334    0.0000 H   0  0  0  0  0  0  0  0  0  0  0  0
  2  1  1  6
  2  3  1  0
  2  6  1  0
  2 11  1  0
  3  4  2  0
  3  5  1  0
  4  7  1  0
  5  8  2  0
  6 10  1  0
  7  9  2  0
  8  9  1  0
M  END

> <chembl_id>
CHEMBL3183068

> <chembl_pref_name>
None

$$$$

     RDKit          2D

 11 11  0  0  0  0  0  0  0  0999 V2000
    1.3026  -10.5035    0.0000 C   0  0  0  0  0  0  0  0  0  0  0  0
    1.3015  -11.3307    0.0000 C   0  0  0  0  0  0  0  0  0  0  0  0
    2.0163  -11.7436    0.0000 C   0  0  0  0  0  0  0  0  0  0  0  0
    2.7327  -11.3303    0.0000 C   0  0  0  0  0  0  0  0  0  0  0  0
    2.7298  -10.4998    0.0000 C   0  0  0  0  0  0  0  0  0  0  0  0
    2.0144  -10.0907    0.0000 C   0  0  0  0  0  0  0  0  0  0  0  0
    3.4427  -10.0846    0.0000 C   0  0  0  0  0  0  0  0  0  0  0  0
    4.1586  -10.4945    0.0000 C   0  0  0  0  0  0  0  0  0  0  0  0
    3.4395   -9.2598    0.0000 O   0  0  0  0  0  0  0  0  0  0  0  0
    4.8715  -10.0793    0.0000 C   0  0  0  0  0  0  0  0  0  0  0  0
    5.5830   -9.6640    0.0000 N   0  0  0  0  0  0  0  0  0  0  0  0
  1  2  2  0
  2  3  1  0
  3  4  2  0
  4  5  1  0
  5  6  2  0
  6  1  1  0
  5  7  1  0
  7  8  1  0
  7  9  1  0
  8 10  1  0
 10 11  3  0
M  END

> <chembl_id>
CHEMBL3546293

> <chembl_pref_name>
None

$$$$

     RDKit          2D

 11 12  0  0  0  0  0  0  0  0999 V2000
    2.1855   -2.6254    0.0000 N   0  0  0  0  0  0  0  0  0  0  0  0
    1.3877   -3.5218    0.0000 N   0  0  0  0  0  0  0  0  0  0  0  0
    1.7138   -1.2033    0.0000 N   0  0  0  0  0  0  0  0  0  0  0  0
    0.2917   -0.7475    0.0000 C   0  0  0  0  0  0  0  0  0  0  0  0
    0.2917    0.7475    0.0000 C   0  0  0  0  0  0  0  0  0  0  0  0
   -1.0028    1.5132    0.0000 C   0  0  0  0  0  0  0  0  0  0  0  0
   -2.3155    0.7475    0.0000 C   0  0  0  0  0  0  0  0  0  0  0  0
   -2.3155   -0.7475    0.0000 C   0  0  0  0  0  0  0  0  0  0  0  0
   -1.0028   -1.5132    0.0000 C   0  0  0  0  0  0  0  0  0  0  0  0
    1.7138    1.2033    0.0000 C   0  0  0  0  0  0  0  0  0  0  0  0
    2.5889    0.0182    0.0000 C   0  0  0  0  0  0  0  0  0  0  0  0
  1  2  1  0
  1  3  1  0
  3  4  1  0
  4  5  2  3
  5  6  1  0
  6  7  2  3
  7  8  1  0
  8  9  2  3
  9  4  1  0
  5 10  1  0
 10 11  1  0
 11  3  1  0
M  END


> <chembl_id>
CHEMBL4598031

> <chembl_pref_name>
None

$$$$

     RDKit          2D

  9  9  0  0  0  0  0  0  0  0999 V2000
   17.1859   -0.6999    0.0000 C   0  0  0  0  0  0  0  0  0  0  0  0
   17.1847   -1.5273    0.0000 C   0  0  0  0  0  0  0  0  0  0  0  0
   17.8996   -1.9402    0.0000 N   0  0  0  0  0  0  0  0  0  0  0  0
   18.6160   -1.5269    0.0000 C   0  0  0  0  0  0  0  0  0  0  0  0
   18.6131   -0.6962    0.0000 C   0  0  0  0  0  0  0  0  0  0  0  0
   17.8978   -0.2872    0.0000 C   0  0  0  0  0  0  0  0  0  0  0  0
   19.3312   -1.9382    0.0000 N   0  0  0  0  0  0  0  0  0  0  0  0
   20.0449   -1.5246    0.0000 O   0  0  0  0  0  0  0  0  0  0  0  0
   16.4714   -0.2876    0.0000 Cl  0  0  0  0  0  0  0  0  0  0  0  0
  4  5  1  0
  2  3  1  0
  5  6  2  0
  6  1  1  0
  1  2  2  0
  4  7  1  0
  3  4  2  0
  7  8  2  0
  1  9  1  0
M  END

> <chembl_id>
CHEMBL1916782

> <chembl_pref_name>
None

$$$$

     RDKit          2D

 10 10  0  0  0  0  0  0  0  0999 V2000
    5.6250   -3.6375    0.0000 C   0  0  0  0  0  0  0  0  0  0  0  0
    4.9042   -3.2250    0.0000 N   0  0  0  0  0  0  0  0  0  0  0  0
    6.3375   -3.2167    0.0000 C   0  0  0  0  0  0  0  0  0  0  0  0
    4.9042   -4.8792    0.0000 N   0  0  0  0  0  0  0  0  0  0  0  0
    5.6250   -4.4667    0.0000 C   0  0  0  0  0  0  0  0  0  0  0  0
    6.3292   -2.3917    0.0000 O   0  0  0  0  0  0  0  0  0  0  0  0
    4.1917   -3.6375    0.0000 C   0  0  0  0  0  0  0  0  0  0  0  0
    4.1917   -4.4667    0.0000 C   0  0  0  0  0  0  0  0  0  0  0  0
    7.0542   -3.6292    0.0000 O   0  0  0  0  0  0  0  0  0  0  0  0
    3.4792   -4.8792    0.0000 C   0  0  0  0  0  0  0  0  0  0  0  0
  2  1  2  0
  3  1  1  0
  4  5  2  0
  5  1  1  0
  6  3  2  0
  7  2  1  0
  8  4  1  0
  9  3  1  0
 10  8  1  0
  8  7  2  0
M  END

> <chembl_id>
CHEMBL126651

> <chembl_pref_name>
None

$$$$

     RDKit          2D

 10 10  0  0  0  0  0  0  0  0999 V2000
   -0.1561   -0.0915    0.0000 C   0  0  0  0  0  0  0  0  0  0  0  0
   -0.6410   -0.7589    0.0000 C   0  0  0  0  0  0  0  0  0  0  0  0
   -1.4256   -0.5040    0.0000 C   0  0  0  0  0  0  0  0  0  0  0  0
   -1.4256    0.3210    0.0000 C   0  0  0  0  0  0  0  0  0  0  0  0
    0.6689   -0.0915    0.0000 C   0  0  0  0  0  0  0  0  0  0  0  0
    1.0814   -0.8059    0.0000 O   0  0  0  0  0  0  0  0  0  0  0  0
    1.0814    0.6230    0.0000 O   0  0  0  0  0  0  0  0  0  0  0  0
   -2.0931    0.8059    0.0000 C   0  0  0  0  0  0  0  0  0  0  0  0
   -2.8467    0.4704    0.0000 N   0  0  0  0  0  0  0  0  0  0  0  0
   -0.6410    0.5760    0.0000 N   0  0  0  0  0  0  0  0  0  0  0  0
  1  2  2  0
  2  3  1  0
  3  4  2  0
  4 10  1  0
  1 10  1  0
  5  6  2  0
  5  7  1  0
  1  5  1  0
  8  9  1  0
  4  8  1  0
M  END

> <chembl_id>
CHEMBL2220173

> <chembl_pref_name>
None

$$$$

     RDKit          2D

 10 10  0  0  0  0  0  0  0  0999 V2000
    2.6839  -27.9460    0.0000 C   0  0  0  0  0  0  0  0  0  0  0  0
    2.6827  -28.7735    0.0000 C   0  0  0  0  0  0  0  0  0  0  0  0
    3.3955  -29.1863    0.0000 C   0  0  0  0  0  0  0  0  0  0  0  0
    4.1149  -28.7730    0.0000 C   0  0  0  0  0  0  0  0  0  0  0  0
    4.1117  -27.9420    0.0000 C   0  0  0  0  0  0  0  0  0  0  0  0
    3.3936  -27.5332    0.0000 C   0  0  0  0  0  0  0  0  0  0  0  0
    4.8241  -27.5260    0.0000 C   0  0  0  0  0  0  0  0  0  0  0  0
    5.5404  -27.9349    0.0000 C   0  0  0  0  0  0  0  0  0  0  0  0
    6.2528  -27.5189    0.0000 N   0  0  0  0  0  0  0  0  0  0  0  0
    4.8296  -29.1848    0.0000 O   0  0  0  0  0  0  0  0  0  0  0  0
  2  3  1  0
  5  6  2  0
  6  1  1  0
  1  2  2  0
  5  7  1  0
  3  4  2  0
  7  8  1  0
  8  9  1  0
  4  5  1  0
  4 10  1  0
M  END

> <chembl_id>
CHEMBL367501

> <chembl_pref_name>
None

$$$$

     RDKit          2D

 10 10  0  0  0  0  0  0  0  0999 V2000
    3.2542   -0.3792    0.0000 N   0  0  0  0  0  0  0  0  0  0  0  0
    3.2917   -1.2042    0.0000 C   0  0  0  0  0  0  0  0  0  0  0  0
    3.9500    0.0708    0.0000 C   0  0  0  0  0  0  0  0  0  0  0  0
    4.6792   -0.3167    0.0000 C   0  0  0  0  0  0  0  0  0  0  0  0
    4.0250   -1.5875    0.0000 N   0  0  0  0  0  0  0  0  0  0  0  0
    4.7167   -1.1417    0.0000 C   0  0  0  0  0  0  0  0  0  0  0  0
    2.6000   -1.6500    0.0000 O   0  0  0  0  0  0  0  0  0  0  0  0
    5.4500   -1.5250    0.0000 C   0  0  0  0  0  0  0  0  0  0  0  0
    3.9125    0.8875    0.0000 O   0  0  0  0  0  0  0  0  0  0  0  0
    6.1417   -1.0792    0.0000 C   0  0  0  0  0  0  0  0  0  0  0  0
  2  1  2  0
  3  1  1  0
  4  3  2  0
  5  2  1  0
  6  4  1  0
  7  2  1  0
  8  6  1  0
  9  3  1  0
 10  8  2  0
  6  5  2  0
M  END

> <chembl_id>
CHEMBL343635

> <chembl_pref_name>
None

$$$$

     RDKit          2D

 12 12  0  0  0  0  0  0  0  0999 V2000
    7.5417   -5.4250    0.0000 N   0  0  0  0  0  0  0  0  0  0  0  0
    6.1167   -5.4292    0.0000 C   0  0  0  0  0  0  0  0  0  0  0  0
    6.8292   -5.8375    0.0000 C   0  0  0  0  0  0  0  0  0  0  0  0
    5.4042   -5.8417    0.0000 C   0  0  0  0  0  0  0  0  0  0  0  0
    4.6875   -5.4292    0.0000 C   0  0  0  0  0  0  0  0  0  0  0  0
    5.4042   -6.6750    0.0000 C   0  0  0  0  0  0  0  0  0  0  0  0
    6.8292   -6.6625    0.0000 C   0  0  0  0  0  0  0  0  0  0  0  0
    6.1167   -7.0792    0.0000 C   0  0  0  0  0  0  0  0  0  0  0  0
    3.9750   -5.8500    0.0000 C   0  0  0  0  0  0  0  0  0  0  0  0
    4.6875   -7.0875    0.0000 C   0  0  0  0  0  0  0  0  0  0  0  0
    3.9750   -6.6750    0.0000 C   0  0  0  0  0  0  0  0  0  0  0  0
    7.0417   -5.0375    0.0000 H   0  0  0  0  0  0  0  0  0  0  0  0
  2  3  1  0
  3  1  1  1
  4  2  1  0
  5  4  2  0
  6  4  1  0
  7  3  1  0
  8  7  1  0
  9  5  1  0
 10  6  2  0
 11  9  2  0
  3 12  1  6
 10 11  1  0
M  END

> <chembl_id>
CHEMBL1178595

> <chembl_pref_name>
None

$$$$

     RDKit          2D

  9  9  0  0  0  0  0  0  0  0999 V2000
   -0.0711   -1.4247    0.0000 C   0  0  0  0  0  0  0  0  0  0  0  0
    0.6434   -1.8372    0.0000 O   0  0  0  0  0  0  0  0  0  0  0  0
   -0.0711   -0.5997    0.0000 C   0  0  0  0  0  0  0  0  0  0  0  0
   -0.7855   -0.1872    0.0000 C   0  0  0  0  0  0  0  0  0  0  0  0
   -0.7855    0.6378    0.0000 C   0  0  0  0  0  0  0  0  0  0  0  0
   -0.0711    1.0503    0.0000 C   0  0  0  0  0  0  0  0  0  0  0  0
    0.6434    0.6378    0.0000 C   0  0  0  0  0  0  0  0  0  0  0  0
    0.6434   -0.1872    0.0000 C   0  0  0  0  0  0  0  0  0  0  0  0
   -0.0711    1.8753    0.0000 O   0  0  0  0  0  0  0  0  0  0  0  0
  1  2  2  0
  3  1  1  0
  3  4  1  0
  3  8  2  0
  4  5  2  0
  5  6  1  0
  6  7  2  0
  6  9  1  0
  7  8  1  0
M  END

> <chembl_id>
CHEMBL14193

> <chembl_pref_name>
4-HYDROXYBENZALDEHYDE

$$$$

     RDKit          2D

  9  9  0  0  0  0  0  0  0  0999 V2000
    1.2990   -0.7500    0.0000 C   0  0  0  0  0  0  0  0  0  0  0  0
    1.2990    0.7500    0.0000 C   0  0  0  0  0  0  0  0  0  0  0  0
    0.0000    1.5000    0.0000 C   0  0  0  0  0  0  0  0  0  0  0  0
   -1.2990    0.7500    0.0000 C   0  0  0  0  0  0  0  0  0  0  0  0
   -1.2990   -0.7500    0.0000 N   0  0  0  0  0  0  0  0  0  0  0  0
    0.0000   -1.5000    0.0000 C   0  0  0  0  0  0  0  0  0  0  0  0
    2.5973   -1.5031    0.0000 C   0  0  0  0  0  0  0  0  0  0  0  0
    3.6375   -0.9049    0.0000 N   0  0  0  0  0  0  0  0  0  0  0  0
    2.5956   -2.7031    0.0000 S   0  0  0  0  0  0  0  0  0  0  0  0
  1  2  2  0
  2  3  1  0
  3  4  2  0
  4  5  1  0
  5  6  2  0
  6  1  1  0
  1  7  1  0
  7  8  1  0
  7  9  2  0
M  END

> <chembl_id>
CHEMBL3741182

> <chembl_pref_name>
None

$$$$

     RDKit          2D

 11 11  0  0  0  0  0  0  0  0999 V2000
   13.2394  -21.9944    0.0000 C   0  0  0  0  0  0  0  0  0  0  0  0
   13.2383  -22.8217    0.0000 C   0  0  0  0  0  0  0  0  0  0  0  0
   13.9530  -23.2346    0.0000 N   0  0  0  0  0  0  0  0  0  0  0  0
   14.6694  -22.8213    0.0000 C   0  0  0  0  0  0  0  0  0  0  0  0
   14.6665  -21.9908    0.0000 C   0  0  0  0  0  0  0  0  0  0  0  0
   13.9512  -21.5816    0.0000 C   0  0  0  0  0  0  0  0  0  0  0  0
   15.3794  -21.5756    0.0000 C   0  0  0  0  0  0  0  0  0  0  0  0
   16.0907  -21.1570    0.0000 C   0  0  0  0  0  0  0  0  0  0  0  0
   16.8016  -20.7386    0.0000 C   0  0  0  0  0  0  0  0  0  0  0  0
   17.5194  -21.1450    0.0000 N   0  0  0  0  0  0  0  0  0  0  0  0
   15.3845  -23.2326    0.0000 C   0  0  0  0  0  0  0  0  0  0  0  0
  1  2  2  0
  2  3  1  0
  3  4  2  0
  4  5  1  0
  5  6  2  0
  6  1  1  0
  5  7  1  0
  7  8  3  0
  8  9  1  0
  9 10  1  0
  4 11  1  0
M  END


> <chembl_id>
CHEMBL4300275

> <chembl_pref_name>
None

$$$$

     RDKit          2D

  9  9  0  0  0  0  0  0  0  0999 V2000
    2.8359   -1.4208    0.0000 O   0  0  0  0  0  0  0  0  0  0  0  0
    2.8359    1.0542    0.0000 N   0  0  0  0  0  0  0  0  0  0  0  0
    2.8359   -0.5958    0.0000 C   0  0  0  0  0  0  0  0  0  0  0  0
    3.5504   -0.1833    0.0000 C   0  0  0  0  0  0  0  0  0  0  0  0
    2.1214   -0.1833    0.0000 C   0  0  0  0  0  0  0  0  0  0  0  0
    3.5504    0.6417    0.0000 C   0  0  0  0  0  0  0  0  0  0  0  0
    2.1214    0.6417    0.0000 C   0  0  0  0  0  0  0  0  0  0  0  0
    2.8359    1.8792    0.0000 C   0  0  0  0  0  0  0  0  0  0  0  0
    3.5504   -1.8333    0.0000 C   0  0  0  0  0  0  0  0  0  0  0  0
  1  3  1  0
  1  9  1  0
  2  6  2  0
  2  7  1  0
  2  8  1  0
  3  4  2  0
  3  5  1  0
  4  6  1  0
  5  7  2  0
M  CHG  1   2   1
M  END

> <chembl_id>
CHEMBL2008408

> <chembl_pref_name>
None

$$$$

     RDKit          2D

  7  7  0  0  0  0  0  0  0  0999 V2000
   -1.5333   -2.2250    0.0000 N   0  0  0  0  0  0  0  0  0  0  0  0
   -2.2000   -1.7375    0.0000 C   0  0  0  0  0  0  0  0  0  0  0  0
   -2.8708   -2.2250    0.0000 N   0  0  0  0  0  0  0  0  0  0  0  0
   -1.7875   -3.0083    0.0000 C   0  0  0  0  0  0  0  0  0  0  0  0
   -2.6125   -3.0083    0.0000 C   0  0  0  0  0  0  0  0  0  0  0  0
   -0.8250   -1.8042    0.0000 C   0  0  0  0  0  0  0  0  0  0  0  0
   -3.5875   -1.8083    0.0000 C   0  0  0  0  0  0  0  0  0  0  0  0
  2  1  2  0
  3  2  1  0
  4  1  1  0
  5  4  2  0
  6  1  1  0
  7  3  1  0
  5  3  1  0
M  CHG  1   1   1
M  END

> <chembl_id>
CHEMBL1229272

> <chembl_pref_name>
None

$$$$

     RDKit          2D

  9  9  0  0  0  0  0  0  0  0999 V2000
   -3.2099   -3.6958    0.0000 N   0  0  0  0  0  0  0  0  0  0  0  0
   -2.4004   -3.8357    0.0000 N   0  0  0  0  0  0  0  0  0  0  0  0
   -2.0179   -3.1179    0.0000 C   0  0  0  0  0  0  0  0  0  0  0  0
   -2.5916   -2.5178    0.0000 O   0  0  0  0  0  0  0  0  0  0  0  0
   -3.3321   -2.8832    0.0000 C   0  0  0  0  0  0  0  0  0  0  0  0
   -1.1914   -3.0185    0.0000 O   0  0  0  0  0  0  0  0  0  0  0  0
   -4.0454   -2.4686    0.0000 C   0  0  0  0  0  0  0  0  0  0  0  0
   -4.7600   -2.8786    0.0000 N   0  0  0  0  0  0  0  0  0  0  0  0
   -5.4724   -2.4645    0.0000 C   0  0  0  0  0  0  0  0  0  0  0  0
  5  1  2  0
  1  2  1  0
  3  6  1  0
  5  7  1  0
  7  8  1  0
  2  3  2  0
  8  9  1  0
  3  4  1  0
  4  5  1  0
M  END

> <chembl_id>
CHEMBL1187590

> <chembl_pref_name>
None

$$$$

     RDKit          2D

 11 11  0  0  0  0  0  0  0  0999 V2000
    2.5973   -1.5031    0.0000 C   0  0  0  0  0  0  0  0  0  0  0  0
    1.5548   -3.6021    0.0000 N   0  0  0  0  0  0  0  0  0  0  0  0
    1.2990   -0.7500    0.0000 C   0  0  0  0  0  0  0  0  0  0  0  0
    2.5951   -3.0039    0.0000 C   0  0  0  0  0  0  0  0  0  0  0  0
    1.2990    0.7500    0.0000 C   0  0  0  0  0  0  0  0  0  0  0  0
    0.0000   -1.5000    0.0000 C   0  0  0  0  0  0  0  0  0  0  0  0
    3.8933   -3.7570    0.0000 C   0  0  0  0  0  0  0  0  0  0  0  0
    3.8916   -4.9570    0.0000 C   0  0  0  0  0  0  0  0  0  0  0  0
   -1.2990   -0.7500    0.0000 C   0  0  0  0  0  0  0  0  0  0  0  0
    0.0000    1.5000    0.0000 C   0  0  0  0  0  0  0  0  0  0  0  0
   -1.2990    0.7500    0.0000 C   0  0  0  0  0  0  0  0  0  0  0  0
  1  3  1  0
  1  4  1  0
  2  4  1  0
  3  5  1  0
  3  6  2  0
  4  7  1  1
  7  8  1  0
  6  9  1  0
  5 10  2  0
  9 11  2  0
 10 11  1  0
M  END

> <chembl_id>
CHEMBL1191789

> <chembl_pref_name>
None

$$$$

     RDKit          2D

  9  9  0  0  0  0  0  0  0  0999 V2000
    5.8592   -5.6790    0.0000 C   0  0  0  0  0  0  0  0  0  0  0  0
    5.8581   -6.4986    0.0000 C   0  0  0  0  0  0  0  0  0  0  0  0
    6.5661   -6.9075    0.0000 N   0  0  0  0  0  0  0  0  0  0  0  0
    7.2758   -6.4981    0.0000 C   0  0  0  0  0  0  0  0  0  0  0  0
    7.2730   -5.6754    0.0000 C   0  0  0  0  0  0  0  0  0  0  0  0
    6.5644   -5.2702    0.0000 C   0  0  0  0  0  0  0  0  0  0  0  0
    7.9842   -6.9056    0.0000 C   0  0  0  0  0  0  0  0  0  0  0  0
    8.6912   -6.4959    0.0000 O   0  0  0  0  0  0  0  0  0  0  0  0
    7.9791   -5.2642    0.0000 C   0  0  0  0  0  0  0  0  0  0  0  0
  1  2  2  0
  2  3  1  0
  3  4  2  0
  4  5  1  0
  5  6  2  0
  6  1  1  0
  4  7  1  0
  7  8  1  0
  5  9  1  0
M  END

> <chembl_id>
CHEMBL3303628

> <chembl_pref_name>
None

$$$$

     RDKit          2D

  8  8  0  0  0  0  0  0  0  0999 V2000
    0.3795   -1.7767    0.0000 O   0  0  0  0  0  0  0  0  0  0  0  0
    0.4850    0.4290    0.0000 N   0  0  0  0  0  0  0  0  0  0  0  0
   -0.5949   -0.3556    0.0000 N   0  0  0  0  0  0  0  0  0  0  0  0
   -0.8499    0.4290    0.0000 N   0  0  0  0  0  0  0  0  0  0  0  0
   -0.1824    1.7389    0.0000 N   0  0  0  0  0  0  0  0  0  0  0  0
    0.2301   -0.3556    0.0000 C   0  0  0  0  0  0  0  0  0  0  0  0
   -0.1824    0.9139    0.0000 C   0  0  0  0  0  0  0  0  0  0  0  0
    0.7150   -1.0230    0.0000 C   0  0  0  0  0  0  0  0  0  0  0  0
  1  8  1  0
  2  6  2  0
  2  7  1  0
  3  4  1  0
  3  6  1  0
  4  7  2  0
  5  7  1  0
  6  8  1  0
M  END

> <chembl_id>
CHEMBL3546138

> <chembl_pref_name>
None

$$$$

     RDKit          2D

  9  9  0  0  0  0  0  0  0  0999 V2000
    3.5817   -1.6583    0.0000 O   0  0  0  0  0  0  0  0  0  0  0  0
    1.4398   -0.4190    0.0000 N   0  0  0  0  0  0  0  0  0  0  0  0
    1.4398   -1.2428    0.0000 C   0  0  0  0  0  0  0  0  0  0  0  0
    0.7235   -1.6476    0.0000 C   0  0  0  0  0  0  0  0  0  0  0  0
    2.1526   -1.6583    0.0000 C   0  0  0  0  0  0  0  0  0  0  0  0
    0.7127    0.0000    0.0000 C   0  0  0  0  0  0  0  0  0  0  0  0
    0.0107   -1.2428    0.0000 C   0  0  0  0  0  0  0  0  0  0  0  0
    0.0000   -0.4190    0.0000 C   0  0  0  0  0  0  0  0  0  0  0  0
    2.8689   -1.2428    0.0000 C   0  0  0  0  0  0  0  0  0  0  0  0
  1  9  1  0
  2  3  2  0
  2  6  1  0
  3  4  1  0
  3  5  1  0
  4  7  2  0
  5  9  1  0
  6  8  2  0
  7  8  1  0
M  END

> <chembl_id>
CHEMBL3186451

> <chembl_pref_name>
None

$$$$

     RDKit          2D

 10 10  0  0  0  0  0  0  0  0999 V2000
    5.3149   -0.1407    0.0000 N   0  0  0  0  0  0  0  0  0  0  0  0
    5.0600   -0.9253    0.0000 N   0  0  0  0  0  0  0  0  0  0  0  0
    2.2393    1.1761    0.0000 N   0  0  0  0  0  0  0  0  0  0  0  0
    3.9801   -0.1407    0.0000 C   0  0  0  0  0  0  0  0  0  0  0  0
    4.6475    0.3442    0.0000 C   0  0  0  0  0  0  0  0  0  0  0  0
    4.2350   -0.9253    0.0000 C   0  0  0  0  0  0  0  0  0  0  0  0
    3.1954    0.1142    0.0000 C   0  0  0  0  0  0  0  0  0  0  0  0
    4.6475    1.1692    0.0000 C   0  0  0  0  0  0  0  0  0  0  0  0
    3.7501   -1.5928    0.0000 C   0  0  0  0  0  0  0  0  0  0  0  0
    3.0239    0.9212    0.0000 C   0  0  0  0  0  0  0  0  0  0  0  0
  1  2  1  0
  1  5  2  0
  2  6  1  0
  3 10  1  0
  4  5  1  0
  4  6  2  0
  4  7  1  0
  5  8  1  0
  6  9  1  0
  7 10  1  0
M  END

> <chembl_id>
CHEMBL1906938

> <chembl_pref_name>
None

$$$$

     RDKit          2D

  9  8  0  0  0  0  0  0  0  0999 V2000
    1.8250   -3.4031    0.0000 N   0  0  0  0  0  0  0  0  0  0  0  0
    2.5394   -3.8156    0.0000 C   0  0  0  0  0  0  0  0  0  0  0  0
    2.5394   -4.6406    0.0000 C   0  0  0  0  0  0  0  0  0  0  0  0
    1.8250   -5.0531    0.0000 C   0  0  0  0  0  0  0  0  0  0  0  0
    1.1105   -4.6406    0.0000 C   0  0  0  0  0  0  0  0  0  0  0  0
    1.1105   -3.8156    0.0000 C   0  0  0  0  0  0  0  0  0  0  0  0
    3.2539   -3.4031    0.0000 S   0  0  0  0  0  0  0  0  0  0  0  0
    1.8250   -2.5781    0.0000 O   0  0  0  0  0  0  0  0  0  0  0  0
    4.5843   -3.0293    0.0000 Na  0  0  0  0  0 15  0  0  0  0  0  0
  1  2  2  0
  2  3  1  0
  3  4  2  0
  4  5  1  0
  5  6  2  0
  1  6  1  0
  2  7  1  0
  1  8  1  0
M  CHG  4   1   1   7  -1   8  -1   9   1
M  END

> <chembl_id>
CHEMBL2364542

> <chembl_pref_name>
PYRITHIONE SODIUM

$$$$

     RDKit          2D

  9  9  0  0  0  0  0  0  0  0999 V2000
    0.0000   -0.8251    0.0000 N   0  0  0  0  0  0  0  0  0  0  0  0
    2.1430   -1.2393    0.0000 C   0  0  0  0  0  0  0  0  0  0  0  0
    2.1430   -0.4143    0.0000 C   0  0  0  0  0  0  0  0  0  0  0  0
    2.8573   -1.6501    0.0000 C   0  0  0  0  0  0  0  0  0  0  0  0
    1.4287   -1.6501    0.0000 C   0  0  0  0  0  0  0  0  0  0  0  0
    2.8573    0.0000    0.0000 C   0  0  0  0  0  0  0  0  0  0  0  0
    3.5716   -1.2393    0.0000 C   0  0  0  0  0  0  0  0  0  0  0  0
    3.5716   -0.4143    0.0000 C   0  0  0  0  0  0  0  0  0  0  0  0
    0.7143   -1.2393    0.0000 C   0  0  0  0  0  0  0  0  0  0  0  0
  1  9  3  0
  2  3  2  0
  2  4  1  0
  2  5  1  0
  3  6  1  0
  4  7  2  0
  5  9  1  0
  6  8  2  0
  7  8  1  0
M  END

> <chembl_id>
CHEMBL3560735

> <chembl_pref_name>
None

$$$$

     RDKit          2D

  9  9  0  0  0  0  0  0  0  0999 V2000
    5.7417   -6.9042    0.0000 N   0  0  0  0  0  0  0  0  0  0  0  0
    6.5042   -6.4667    0.0000 C   0  0  0  0  0  0  0  0  0  0  0  0
    4.9792   -6.4667    0.0000 C   0  0  0  0  0  0  0  0  0  0  0  0
    6.5042   -5.5792    0.0000 C   0  0  0  0  0  0  0  0  0  0  0  0
    7.1292   -7.0875    0.0000 F   0  0  0  0  0  0  0  0  0  0  0  0
    5.7417   -7.7917    0.0000 C   0  0  0  0  0  0  0  0  0  0  0  0
    4.9792   -5.5792    0.0000 C   0  0  0  0  0  0  0  0  0  0  0  0
    5.7417   -5.1375    0.0000 C   0  0  0  0  0  0  0  0  0  0  0  0
    4.2167   -5.1417    0.0000 C   0  0  0  0  0  0  0  0  0  0  0  0
  2  1  2  0
  3  1  1  0
  4  2  1  0
  5  2  1  0
  6  1  1  0
  7  3  2  0
  8  7  1  0
  9  7  1  0
  8  4  2  0
M  CHG  1   1   1
M  END

> <chembl_id>
CHEMBL1183463

> <chembl_pref_name>
None

$$$$

     RDKit          2D

  9  9  0  0  0  0  0  0  0  0999 V2000
    2.8083   -3.8246    0.0000 N   0  0  0  0  0  0  0  0  0  0  0  0
    3.6189   -3.9646    0.0000 N   0  0  0  0  0  0  0  0  0  0  0  0
    4.0019   -3.2459    0.0000 C   0  0  0  0  0  0  0  0  0  0  0  0
    3.4274   -2.6449    0.0000 O   0  0  0  0  0  0  0  0  0  0  0  0
    2.6859   -3.0108    0.0000 C   0  0  0  0  0  0  0  0  0  0  0  0
    4.8294   -3.1463    0.0000 O   0  0  0  0  0  0  0  0  0  0  0  0
    1.9716   -2.5957    0.0000 C   0  0  0  0  0  0  0  0  0  0  0  0
    1.2561   -3.0062    0.0000 N   0  0  0  0  0  0  0  0  0  0  0  0
    1.9741   -1.7707    0.0000 C   0  0  0  0  0  0  0  0  0  0  0  0
  5  1  2  0
  1  2  1  0
  3  6  1  0
  5  7  1  0
  7  8  1  6
  2  3  2  0
  7  9  1  0
  3  4  1  0
  4  5  1  0
M  END

> <chembl_id>
CHEMBL1185983

> <chembl_pref_name>
None

$$$$

     RDKit          2D

  9  9  0  0  0  0  0  0  0  0999 V2000
    0.1292    1.3333    0.0000 C   0  0  0  0  0  0  0  0  0  0  0  0
    0.8000    0.8500    0.0000 C   0  0  0  0  0  0  0  0  0  0  0  0
    0.1292    2.1583    0.0000 N   0  0  0  0  0  0  0  0  0  0  0  0
   -1.1333    1.7458    0.0000 S   0  0  0  0  0  0  0  0  0  0  0  0
   -0.6500    2.4083    0.0000 C   0  0  0  0  0  0  0  0  0  0  0  0
   -0.6500    1.0833    0.0000 C   0  0  0  0  0  0  0  0  0  0  0  0
    0.8000    0.0250    0.0000 O   0  0  0  0  0  0  0  0  0  0  0  0
    1.5125    1.2625    0.0000 N   0  0  0  0  0  0  0  0  0  0  0  0
    2.2250    0.8500    0.0000 N   0  0  0  0  0  0  0  0  0  0  0  0
  2  1  1  0
  3  1  1  0
  4  6  1  0
  5  3  2  0
  6  1  2  0
  7  2  2  0
  8  2  1  0
  9  8  1  0
  5  4  1  0
M  END

> <chembl_id>
CHEMBL341477

> <chembl_pref_name>
None

$$$$

     RDKit          2D

 11 11  0  0  0  0  0  0  0  0999 V2000
   12.9992   -3.7293    0.0000 C   0  0  0  0  0  0  0  0  0  0  0  0
   12.9981   -4.5568    0.0000 C   0  0  0  0  0  0  0  0  0  0  0  0
   13.7129   -4.9696    0.0000 N   0  0  0  0  0  0  0  0  0  0  0  0
   14.4295   -4.5563    0.0000 C   0  0  0  0  0  0  0  0  0  0  0  0
   14.4266   -3.7257    0.0000 C   0  0  0  0  0  0  0  0  0  0  0  0
   13.7111   -3.3166    0.0000 C   0  0  0  0  0  0  0  0  0  0  0  0
   15.1395   -3.3105    0.0000 C   0  0  0  0  0  0  0  0  0  0  0  0
   15.8509   -2.8918    0.0000 C   0  0  0  0  0  0  0  0  0  0  0  0
   16.5619   -2.4733    0.0000 C   0  0  0  0  0  0  0  0  0  0  0  0
   17.2798   -2.8798    0.0000 N   0  0  0  0  0  0  0  0  0  0  0  0
   12.2833   -4.9687    0.0000 C   0  0  0  0  0  0  0  0  0  0  0  0
  1  2  2  0
  2  3  1  0
  3  4  2  0
  4  5  1  0
  5  6  2  0
  6  1  1  0
  5  7  1  0
  7  8  3  0
  8  9  1  0
  9 10  1  0
  2 11  1  0
M  END


> <chembl_id>
CHEMBL4299880

> <chembl_pref_name>
None

$$$$

     RDKit          2D

 10 10  0  0  0  0  0  0  0  0999 V2000
   -0.4131    0.1060    0.0000 O   0  0  0  0  0  0  0  0  0  0  0  0
   -0.8547   -1.2530    0.0000 O   0  0  0  0  0  0  0  0  0  0  0  0
    1.8779   -0.9559    0.0000 N   0  0  0  0  0  0  0  0  0  0  0  0
    1.6230   -1.7405    0.0000 N   0  0  0  0  0  0  0  0  0  0  0  0
    1.2105    0.3540    0.0000 N   0  0  0  0  0  0  0  0  0  0  0  0
    0.5430   -0.9559    0.0000 C   0  0  0  0  0  0  0  0  0  0  0  0
    1.2105   -0.4710    0.0000 C   0  0  0  0  0  0  0  0  0  0  0  0
   -0.2416   -0.7010    0.0000 C   0  0  0  0  0  0  0  0  0  0  0  0
    0.7980   -1.7405    0.0000 C   0  0  0  0  0  0  0  0  0  0  0  0
   -1.1977    0.3609    0.0000 C   0  0  0  0  0  0  0  0  0  0  0  0
  1  8  1  0
  1 10  1  0
  2  8  2  0
  3  4  1  0
  3  7  2  0
  4  9  1  0
  5  7  1  0
  6  7  1  0
  6  8  1  0
  6  9  2  0
M  END

> <chembl_id>
CHEMBL1489993

> <chembl_pref_name>
None

$$$$

     RDKit          2D

  5  5  0  0  0  0  0  0  0  0999 V2000
    0.7500   -1.0323    0.0000 N   0  0  0  0  0  0  0  0  0  0  0  0
    1.2135    0.3943    0.0000 N   0  0  0  0  0  0  0  0  0  0  0  0
   -1.2135    0.3943    0.0000 N   0  0  0  0  0  0  0  0  0  0  0  0
   -0.7500   -1.0323    0.0000 C   0  0  0  0  0  0  0  0  0  0  0  0
    0.0000    1.2760    0.0000 C   0  0  0  0  0  0  0  0  0  0  0  0
  1  2  1  0
  1  4  1  0
  2  5  2  0
  3  4  2  0
  3  5  1  0
M  END

> <chembl_id>
CHEMBL15571

> <chembl_pref_name>
1,2,4-TRIAZOLE

$$$$

     RDKit          2D

 10 10  0  0  0  0  0  0  0  0999 V2000
   -0.5485    0.7589    0.0000 O   0  0  0  0  0  0  0  0  0  0  0  0
   -0.0636    0.0915    0.0000 C   0  0  0  0  0  0  0  0  0  0  0  0
   -0.5485   -0.5760    0.0000 C   0  0  0  0  0  0  0  0  0  0  0  0
   -1.3332   -0.3210    0.0000 C   0  0  0  0  0  0  0  0  0  0  0  0
   -1.3332    0.5040    0.0000 C   0  0  0  0  0  0  0  0  0  0  0  0
    0.7614    0.0915    0.0000 C   0  0  0  0  0  0  0  0  0  0  0  0
    1.1739   -0.6230    0.0000 O   0  0  0  0  0  0  0  0  0  0  0  0
    1.1739    0.8059    0.0000 O   0  0  0  0  0  0  0  0  0  0  0  0
   -2.0006   -0.8059    0.0000 C   0  0  0  0  0  0  0  0  0  0  0  0
   -2.7543   -0.4704    0.0000 N   0  0  0  0  0  0  0  0  0  0  0  0
  1  2  1  0
  2  3  2  0
  3  4  1  0
  4  5  2  0
  1  5  1  0
  6  7  2  0
  6  8  1  0
  2  6  1  0
  9 10  1  0
  4  9  1  0
M  END

> <chembl_id>
CHEMBL2220215

> <chembl_pref_name>
None

$$$$

     RDKit          2D

 12 13  0  0  0  0  0  0  0  0999 V2000
    7.1542   -8.0500    0.0000 C   0  0  0  0  0  0  0  0  0  0  0  0
    6.4375   -6.8167    0.0000 C   0  0  0  0  0  0  0  0  0  0  0  0
    7.8667   -7.6292    0.0000 C   0  0  0  0  0  0  0  0  0  0  0  0
    6.4375   -7.6375    0.0000 C   0  0  0  0  0  0  0  0  0  0  0  0
    8.5792   -6.3917    0.0000 N   0  0  0  0  0  0  0  0  0  0  0  0
    7.1500   -6.4000    0.0000 C   0  0  0  0  0  0  0  0  0  0  0  0
    7.8667   -6.8042    0.0000 C   0  0  0  0  0  0  0  0  0  0  0  0
    5.7167   -6.4042    0.0000 C   0  0  0  0  0  0  0  0  0  0  0  0
    5.7167   -8.0542    0.0000 C   0  0  0  0  0  0  0  0  0  0  0  0
    5.0042   -6.8167    0.0000 C   0  0  0  0  0  0  0  0  0  0  0  0
    5.0042   -7.6417    0.0000 C   0  0  0  0  0  0  0  0  0  0  0  0
    8.0792   -6.0042    0.0000 H   0  0  0  0  0  0  0  0  0  0  0  0
  2  4  1  0
  3  1  2  0
  4  1  1  0
  7  5  1  1
  6  2  1  0
  7  3  1  0
  8  2  2  0
  9  4  2  0
 10 11  2  0
 11  9  1  0
  7 12  1  6
  7  6  1  0
 10  8  1  0
M  END

> <chembl_id>
CHEMBL1237170

> <chembl_pref_name>
None

$$$$

     RDKit          2D

 10 10  0  0  0  0  0  0  0  0999 V2000
    1.5947    1.4162    0.0000 C   0  0  0  0  0  0  0  0  0  0  0  0
    0.8803    1.0037    0.0000 C   0  0  0  0  0  0  0  0  0  0  0  0
    0.8803    0.1787    0.0000 O   0  0  0  0  0  0  0  0  0  0  0  0
    0.1658   -0.2338    0.0000 C   0  0  0  0  0  0  0  0  0  0  0  0
    0.1658   -1.0588    0.0000 C   0  0  0  0  0  0  0  0  0  0  0  0
   -0.5487   -1.4713    0.0000 C   0  0  0  0  0  0  0  0  0  0  0  0
   -1.2631   -1.0588    0.0000 C   0  0  0  0  0  0  0  0  0  0  0  0
   -1.2631   -0.2338    0.0000 C   0  0  0  0  0  0  0  0  0  0  0  0
   -0.5487    0.1787    0.0000 C   0  0  0  0  0  0  0  0  0  0  0  0
   -0.5487    1.0037    0.0000 O   0  0  0  0  0  0  0  0  0  0  0  0
  1  2  1  0
  2  3  1  0
  4  3  1  0
  5  4  2  0
  9  4  1  0
  6  5  1  0
  7  6  2  0
  7  8  1  0
  8  9  2  0
  9 10  1  0
M  END

> <chembl_id>
CHEMBL225436

> <chembl_pref_name>
1-hydroxy-2-ethoxybenzene

$$$$

     RDKit          2D

  9  9  0  0  0  0  0  0  0  0999 V2000
    1.3496    0.3208    0.0000 Cl  0  0  0  0  0  0  0  0  0  0  0  0
   -0.0794    1.1458    0.0000 N   0  0  0  0  0  0  0  0  0  0  0  0
   -0.7939    1.5583    0.0000 N   0  0  0  0  0  0  0  0  0  0  0  0
   -0.0794    0.3208    0.0000 C   0  0  0  0  0  0  0  0  0  0  0  0
    0.6351   -0.0917    0.0000 C   0  0  0  0  0  0  0  0  0  0  0  0
   -0.7939   -0.0917    0.0000 C   0  0  0  0  0  0  0  0  0  0  0  0
    0.6351   -0.9167    0.0000 C   0  0  0  0  0  0  0  0  0  0  0  0
   -0.7939   -0.9167    0.0000 C   0  0  0  0  0  0  0  0  0  0  0  0
   -0.0794   -1.3292    0.0000 C   0  0  0  0  0  0  0  0  0  0  0  0
  1  5  1  0
  2  3  1  0
  2  4  1  0
  4  5  2  0
  4  6  1  0
  5  7  1  0
  6  8  2  0
  7  9  2  0
  8  9  1  0
M  END

> <chembl_id>
CHEMBL2007853

> <chembl_pref_name>
None

$$$$

     RDKit          2D

  7  7  0  0  0  0  0  0  0  0999 V2000
    2.7315   -0.7839    0.0000 S   0  0  0  0  0  0  0  0  0  0  0  0
    0.6665    0.0000    0.0000 O   0  0  0  0  0  0  0  0  0  0  0  0
    1.3302   -0.4862    0.0000 C   0  0  0  0  0  0  0  0  0  0  0  0
    1.0817   -1.2701    0.0000 C   0  0  0  0  0  0  0  0  0  0  0  0
    2.1169   -0.2267    0.0000 C   0  0  0  0  0  0  0  0  0  0  0  0
    0.0000   -0.4862    0.0000 C   0  0  0  0  0  0  0  0  0  0  0  0
    0.2595   -1.2701    0.0000 C   0  0  0  0  0  0  0  0  0  0  0  0
  1  5  1  0
  2  3  1  0
  2  6  1  0
  3  4  2  0
  3  5  1  0
  4  7  1  0
  6  7  2  0
M  END

> <chembl_id>
CHEMBL3560314

> <chembl_pref_name>
None

$$$$

     RDKit          2D

 11 12  0  0  1  0  0  0  0  0999 V2000
    6.1917   -2.8542    0.0000 N   0  0  0  0  0  0  0  0  0  0  0  0
    4.7792   -2.9667    0.0000 C   0  0  0  0  0  0  0  0  0  0  0  0
    5.5250   -3.3542    0.0000 C   0  0  0  0  0  0  0  0  0  0  0  0
    4.0667   -1.7292    0.0000 N   0  0  0  0  0  0  0  0  0  0  0  0
    4.7792   -2.1417    0.0000 C   0  0  0  0  0  0  0  0  0  0  0  0
    6.8625   -3.3542    0.0000 C   0  0  0  0  0  0  0  0  0  0  0  0
    4.0667   -3.3917    0.0000 C   0  0  0  0  0  0  0  0  0  0  0  0
    3.3417   -2.1417    0.0000 C   0  0  0  0  0  0  0  0  0  0  0  0
    5.7875   -4.1292    0.0000 C   0  0  0  0  0  0  0  0  0  0  0  0
    3.3500   -2.9667    0.0000 C   0  0  0  0  0  0  0  0  0  0  0  0
    6.6042   -4.1292    0.0000 C   0  0  0  0  0  0  0  0  0  0  0  0
  3  2  1  6
  3  1  1  0
  4  5  1  0
  5  2  2  0
  6  1  1  0
  7  2  1  0
  8 10  1  0
  9  3  1  0
 10  7  2  0
 11  6  1  0
  9 11  1  0
  4  8  2  0
M  END

> <chembl_id>
CHEMBL264213

> <chembl_pref_name>
None

$$$$

     RDKit          2D

  8  8  0  0  0  0  0  0  0  0999 V2000
   14.5935  -11.0271    0.0000 S   0  0  0  0  0  0  0  0  0  0  0  0
   13.8079  -10.7690    0.0000 N   0  0  0  0  0  0  0  0  0  0  0  0
   13.8079   -9.9433    0.0000 C   0  0  0  0  0  0  0  0  0  0  0  0
   14.5935   -9.6894    0.0000 C   0  0  0  0  0  0  0  0  0  0  0  0
   15.0764  -10.3582    0.0000 C   0  0  0  0  0  0  0  0  0  0  0  0
   13.1391  -11.2561    0.0000 C   0  0  0  0  0  0  0  0  0  0  0  0
   15.8916  -10.4891    0.0000 N   0  0  0  0  0  0  0  0  0  0  0  0
   13.1425   -9.4590    0.0000 C   0  0  0  0  0  0  0  0  0  0  0  0
  1  2  1  0
  2  3  1  0
  3  4  2  0
  4  5  1  0
  1  5  1  0
  2  6  1  0
  5  7  2  0
  3  8  1  0
M  END

> <chembl_id>
CHEMBL3303346

> <chembl_pref_name>
None

$$$$

     RDKit          2D

 10 10  0  0  0  0  0  0  0  0999 V2000
    4.9792   -1.7542    0.0000 C   0  0  0  0  0  0  0  0  0  0  0  0
    4.9792   -1.1542    0.0000 C   0  0  0  0  0  0  0  0  0  0  0  0
    4.4542   -0.8542    0.0000 N   0  0  0  0  0  0  0  0  0  0  0  0
    5.4917   -0.2542    0.0000 N   0  0  0  0  0  0  0  0  0  0  0  0
    5.5000   -0.8542    0.0000 C   0  0  0  0  0  0  0  0  0  0  0  0
    5.5042   -2.0542    0.0000 C   0  0  0  0  0  0  0  0  0  0  0  0
    4.4667   -2.0625    0.0000 C   0  0  0  0  0  0  0  0  0  0  0  0
    4.4667   -2.6625    0.0000 C   0  0  0  0  0  0  0  0  0  0  0  0
    5.5042   -2.6625    0.0000 C   0  0  0  0  0  0  0  0  0  0  0  0
    4.9792   -2.9625    0.0000 C   0  0  0  0  0  0  0  0  0  0  0  0
  2  1  1  0
  3  2  1  0
  4  5  1  0
  5  2  1  0
  6  1  2  0
  7  1  1  0
  8  7  2  0
  9  6  1  0
 10  8  1  0
 10  9  2  0
M  END

> <chembl_id>
CHEMBL128078

> <chembl_pref_name>
None

$$$$

     RDKit          2D

 10 11  0  0  0  0  0  0  0  0999 V2000
    0.2917   -0.7475    0.0000 C   0  0  0  0  0  0  0  0  0  0  0  0
    0.2917    0.7475    0.0000 C   0  0  0  0  0  0  0  0  0  0  0  0
    1.7138    1.2033    0.0000 C   0  0  0  0  0  0  0  0  0  0  0  0
    1.7138   -1.2033    0.0000 C   0  0  0  0  0  0  0  0  0  0  0  0
    2.5889    0.0182    0.0000 C   0  0  0  0  0  0  0  0  0  0  0  0
    3.7889    0.0269    0.0000 N   0  0  0  0  0  0  0  0  0  0  0  0
   -1.0028   -1.5132    0.0000 C   0  0  0  0  0  0  0  0  0  0  0  0
   -1.0028    1.5132    0.0000 C   0  0  0  0  0  0  0  0  0  0  0  0
   -2.3155    0.7475    0.0000 C   0  0  0  0  0  0  0  0  0  0  0  0
   -2.3155   -0.7475    0.0000 C   0  0  0  0  0  0  0  0  0  0  0  0
  1  2  1  0
  2  3  1  0
  1  4  1  0
  3  5  1  0
  4  5  1  0
  5  6  1  0
  1  7  2  0
  2  8  2  0
  8  9  1  0
  7 10  1  0
  9 10  2  0
M  END

> <chembl_id>
CHEMBL1188176

> <chembl_pref_name>
None

$$$$

     RDKit          2D

  7  7  0  0  0  0  0  0  0  0999 V2000
    1.2892  -12.5549    0.0000 N   0  0  0  0  0  0  0  0  0  0  0  0
    2.0001  -12.1420    0.0000 C   0  0  0  0  0  0  0  0  0  0  0  0
    2.7676  -12.4784    0.0000 N   0  0  0  0  0  0  0  0  0  0  0  0
    1.2507  -13.3848    0.0000 C   0  0  0  0  0  0  0  0  0  0  0  0
    0.6699  -11.9984    0.0000 S   0  0  0  0  0  0  0  0  0  0  0  0
    1.0044  -11.2561    0.0000 C   0  0  0  0  0  0  0  0  0  0  0  0
    1.8241  -11.3360    0.0000 C   0  0  0  0  0  0  0  0  0  0  0  0
  1  2  1  0
  2  3  2  0
  1  4  1  0
  1  5  1  0
  5  6  1  0
  6  7  2  0
  2  7  1  0
M  END

> <chembl_id>
CHEMBL3303361

> <chembl_pref_name>
None

$$$$

     RDKit          2D

  7  7  0  0  0  0  0  0  0  0999 V2000
    0.6751    0.0000    0.0000 S   0  0  0  0  0  0  0  0  0  0  0  0
    1.3391   -1.3197    0.0000 N   0  0  0  0  0  0  0  0  0  0  0  0
    0.0000   -1.3197    0.0000 N   0  0  0  0  0  0  0  0  0  0  0  0
    0.2584   -2.1032    0.0000 N   0  0  0  0  0  0  0  0  0  0  0  0
    1.5670   -2.7783    0.0000 N   0  0  0  0  0  0  0  0  0  0  0  0
    0.6751   -0.8335    0.0000 C   0  0  0  0  0  0  0  0  0  0  0  0
    1.0808   -2.1032    0.0000 C   0  0  0  0  0  0  0  0  0  0  0  0
  1  6  2  0
  2  6  1  0
  2  7  2  0
  3  4  1  0
  3  6  1  0
  4  7  1  0
  5  7  1  0
M  END

> <chembl_id>
CHEMBL3187666

> <chembl_pref_name>
None

$$$$

     RDKit          2D

 10 10  0  0  0  0  0  0  0  0999 V2000
    3.5430    2.0625    0.0000 C   0  0  0  0  0  0  0  0  0  0  0  0
    3.5430    1.2375    0.0000 C   0  0  0  0  0  0  0  0  0  0  0  0
    2.8286    0.8250    0.0000 O   0  0  0  0  0  0  0  0  0  0  0  0
    4.2575    0.8250    0.0000 N   0  0  0  0  0  0  0  0  0  0  0  0
    4.2575    0.0000    0.0000 C   0  0  0  0  0  0  0  0  0  0  0  0
    4.9720   -0.4125    0.0000 C   0  0  0  0  0  0  0  0  0  0  0  0
    4.9720   -1.2375    0.0000 C   0  0  0  0  0  0  0  0  0  0  0  0
    4.2575   -1.6500    0.0000 C   0  0  0  0  0  0  0  0  0  0  0  0
    3.5430   -1.2375    0.0000 C   0  0  0  0  0  0  0  0  0  0  0  0
    3.5430   -0.4125    0.0000 C   0  0  0  0  0  0  0  0  0  0  0  0
  1  2  1  0
  2  3  2  0
  2  4  1  0
  4  5  1  0
  5  6  2  0
  6  7  1  0
  7  8  2  0
  8  9  1  0
  9 10  2  0
  5 10  1  0
M  END

> <chembl_id>
CHEMBL269644

> <chembl_pref_name>
ACETANILIDE

$$$$

     RDKit          2D

  9  9  0  0  0  0  0  0  0  0999 V2000
   18.9051  -15.2007    0.0000 S   0  0  0  0  0  0  0  0  0  0  0  0
   18.0861  -15.2007    0.0000 C   0  0  0  0  0  0  0  0  0  0  0  0
   17.8343  -14.4216    0.0000 N   0  0  0  0  0  0  0  0  0  0  0  0
   18.4977  -13.9426    0.0000 C   0  0  0  0  0  0  0  0  0  0  0  0
   19.1569  -14.4216    0.0000 C   0  0  0  0  0  0  0  0  0  0  0  0
   19.9361  -14.1698    0.0000 C   0  0  0  0  0  0  0  0  0  0  0  0
   20.5164  -14.7501    0.0000 C   0  0  0  0  0  0  0  0  0  0  0  0
   18.4977  -13.1236    0.0000 C   0  0  0  0  0  0  0  0  0  0  0  0
   17.0552  -14.1698    0.0000 C   0  0  0  0  0  0  0  0  0  0  0  0
  1  2  1  0
  2  3  2  0
  3  4  1  0
  4  5  2  0
  1  5  1  0
  6  7  1  0
  5  6  1  0
  4  8  1  0
  3  9  1  0
M  CHG  1   3   1
M  END

> <chembl_id>
CHEMBL3307076

> <chembl_pref_name>
None

$$$$

     RDKit          2D

 10 11  0  0  0  0  0  0  0  0999 V2000
   -1.3333   -3.0250    0.0000 C   0  0  0  0  0  0  0  0  0  0  0  0
   -0.5125   -3.5417    0.0000 N   0  0  0  0  0  0  0  0  0  0  0  0
   -0.7333   -2.9875    0.0000 C   0  0  0  0  0  0  0  0  0  0  0  0
   -1.4833   -3.6042    0.0000 C   0  0  0  0  0  0  0  0  0  0  0  0
   -0.9750   -3.9292    0.0000 O   0  0  0  0  0  0  0  0  0  0  0  0
   -2.3375   -2.7542    0.0000 N   0  0  0  0  0  0  0  0  0  0  0  0
   -1.7583   -2.6000    0.0000 C   0  0  0  0  0  0  0  0  0  0  0  0
   -2.0625   -3.7625    0.0000 C   0  0  0  0  0  0  0  0  0  0  0  0
   -0.4375   -2.4667    0.0000 O   0  0  0  0  0  0  0  0  0  0  0  0
   -2.4958   -3.3417    0.0000 C   0  0  0  0  0  0  0  0  0  0  0  0
  2  3  2  0
  3  1  1  0
  4  1  2  0
  5  4  1  0
  6  7  1  0
  7  1  1  0
  8  4  1  0
  9  3  1  0
 10  6  1  0
  2  5  1  0
 10  8  1  0
M  END

> <chembl_id>
CHEMBL150830

> <chembl_pref_name>
None

$$$$

     RDKit          2D

  8  8  0  0  0  0  0  0  0  0999 V2000
    2.0929    0.0000    0.0000 S   0  0  0  0  0  0  0  0  0  0  0  0
    0.0000   -0.7306    0.0000 O   0  0  0  0  0  0  0  0  0  0  0  0
    1.4153   -0.4694    0.0000 C   0  0  0  0  0  0  0  0  0  0  0  0
    2.7423   -0.5188    0.0000 C   0  0  0  0  0  0  0  0  0  0  0  0
    1.6341   -1.2671    0.0000 C   0  0  0  0  0  0  0  0  0  0  0  0
    2.4636   -1.2776    0.0000 C   0  0  0  0  0  0  0  0  0  0  0  0
    0.6388   -0.1906    0.0000 C   0  0  0  0  0  0  0  0  0  0  0  0
    3.5294   -0.2894    0.0000 C   0  0  0  0  0  0  0  0  0  0  0  0
  1  3  1  0
  1  4  1  0
  2  7  2  0
  3  5  2  0
  3  7  1  0
  4  6  2  0
  4  8  1  0
  5  6  1  0
M  END

> <chembl_id>
CHEMBL3186212

> <chembl_pref_name>
None

$$$$

     RDKit          2D

 11 11  0  0  0  0  0  0  0  0999 V2000
   14.5292    1.4895    0.0000 C   0  0  0  0  0  0  0  0  0  0  0  0
   14.5292    2.3145    0.0000 C   0  0  0  0  0  0  0  0  0  0  0  0
   15.2453    2.7270    0.0000 N   0  0  0  0  0  0  0  0  0  0  0  0
   15.2511    1.0770    0.0000 C   0  0  0  0  0  0  0  0  0  0  0  0
   13.8245    1.0770    0.0000 C   0  0  0  0  0  0  0  0  0  0  0  0
   15.9558    2.3203    0.0000 C   0  0  0  0  0  0  0  0  0  0  0  0
   13.8073    2.7270    0.0000 C   0  0  0  0  0  0  0  0  0  0  0  0
   13.8245    0.2520    0.0000 C   0  0  0  0  0  0  0  0  0  0  0  0
   15.2511    0.2520    0.0000 C   0  0  0  0  0  0  0  0  0  0  0  0
   14.5292   -0.1605    0.0000 C   0  0  0  0  0  0  0  0  0  0  0  0
   14.5278    3.1395    0.0000 H   0  0  0  0  0  0  0  0  0  0  0  0
  1  2  1  0
  3  2  1  0
  4  1  2  0
  5  1  1  0
  6  3  1  0
  2  7  1  6
  8  5  2  0
  9  4  1  0
 10  8  1  0
  9 10  2  0
  2 11  1  1
M  END

> <chembl_id>
CHEMBL1907958

> <chembl_pref_name>
None

$$$$

     RDKit          2D

  9  9  0  0  0  0  0  0  0  0999 V2000
    5.5917   -2.6000    0.0000 C   0  0  0  0  0  0  0  0  0  0  0  0
    6.1292   -2.3292    0.0000 N   0  0  0  0  0  0  0  0  0  0  0  0
    5.0625   -2.3292    0.0000 C   0  0  0  0  0  0  0  0  0  0  0  0
    5.6917   -3.1917    0.0000 C   0  0  0  0  0  0  0  0  0  0  0  0
    6.5542   -2.7542    0.0000 C   0  0  0  0  0  0  0  0  0  0  0  0
    6.2792   -3.2875    0.0000 N   0  0  0  0  0  0  0  0  0  0  0  0
    5.0292   -1.7292    0.0000 O   0  0  0  0  0  0  0  0  0  0  0  0
    4.5542   -2.6542    0.0000 N   0  0  0  0  0  0  0  0  0  0  0  0
    5.2667   -3.6167    0.0000 C   0  0  0  0  0  0  0  0  0  0  0  0
  2  1  1  0
  3  1  1  0
  4  1  2  0
  5  2  2  0
  6  4  1  0
  7  3  2  0
  8  3  1  0
  9  4  1  0
  6  5  1  0
M  END

> <chembl_id>
CHEMBL352915

> <chembl_pref_name>
None

$$$$

     RDKit          2D

  7  7  0  0  0  0  0  0  0  0999 V2000
    7.1792   -1.2625    0.0000 C   0  0  0  0  0  0  0  0  0  0  0  0
    7.8875   -1.6667    0.0000 N   0  0  0  0  0  0  0  0  0  0  0  0
    8.6000   -1.2625    0.0000 C   0  0  0  0  0  0  0  0  0  0  0  0
    7.1792   -0.4375    0.0000 C   0  0  0  0  0  0  0  0  0  0  0  0
    6.4625   -1.6750    0.0000 O   0  0  0  0  0  0  0  0  0  0  0  0
    8.6000   -0.4375    0.0000 C   0  0  0  0  0  0  0  0  0  0  0  0
    7.8875   -0.0167    0.0000 C   0  0  0  0  0  0  0  0  0  0  0  0
  2  1  2  0
  3  2  1  0
  4  1  1  0
  5  1  1  0
  6  7  1  0
  7  4  2  0
  3  6  2  0
M  END

> <chembl_id>
CHEMBL662

> <chembl_pref_name>
None

$$$$

     RDKit          2D

 11 11  0  0  0  0  0  0  0  0999 V2000
    0.0083    0.0000    0.0000 N   0  0  0  0  0  0  0  0  0  0  0  0
    2.8689   -1.6633    0.0000 C   0  0  0  0  0  0  0  0  0  0  0  0
    1.4492   -0.8378    0.0000 C   0  0  0  0  0  0  0  0  0  0  0  0
    2.1519   -2.0714    0.0000 C   0  0  0  0  0  0  0  0  0  0  0  0
    2.8760   -0.8424    0.0000 C   0  0  0  0  0  0  0  0  0  0  0  0
    3.5853   -2.0894    0.0000 C   0  0  0  0  0  0  0  0  0  0  0  0
    1.4420   -1.6587    0.0000 C   0  0  0  0  0  0  0  0  0  0  0  0
    2.1663   -0.4297    0.0000 C   0  0  0  0  0  0  0  0  0  0  0  0
    0.7215   -0.4147    0.0000 C   0  0  0  0  0  0  0  0  0  0  0  0
    4.3022   -1.6812    0.0000 C   0  0  0  0  0  0  0  0  0  0  0  0
    3.5781   -2.9103    0.0000 C   0  0  0  0  0  0  0  0  0  0  0  0
  1  9  3  0
  2  4  2  0
  2  5  1  0
  2  6  1  0
  3  7  2  0
  3  8  1  0
  3  9  1  0
  4  7  1  0
  5  8  2  0
  6 10  1  0
  6 11  1  0
M  END

> <chembl_id>
CHEMBL3560297

> <chembl_pref_name>
None

$$$$

     RDKit          2D

 11 12  0  0  0  0  0  0  0  0999 V2000
   14.2321  -23.3176    0.0000 C   0  0  0  0  0  0  0  0  0  0  0  0
   14.2309  -24.1436    0.0000 C   0  0  0  0  0  0  0  0  0  0  0  0
   14.9445  -24.5557    0.0000 C   0  0  0  0  0  0  0  0  0  0  0  0
   14.9427  -22.9056    0.0000 C   0  0  0  0  0  0  0  0  0  0  0  0
   15.6568  -23.3140    0.0000 C   0  0  0  0  0  0  0  0  0  0  0  0
   15.6617  -24.1390    0.0000 C   0  0  0  0  0  0  0  0  0  0  0  0
   16.4478  -24.3894    0.0000 C   0  0  0  0  0  0  0  0  0  0  0  0
   16.9289  -23.7190    0.0000 N   0  0  0  0  0  0  0  0  0  0  0  0
   16.4399  -23.0545    0.0000 C   0  0  0  0  0  0  0  0  0  0  0  0
   17.7523  -23.7169    0.0000 N   0  0  0  0  0  0  0  0  0  0  0  0
   18.3347  -24.2993    0.0000 O   0  0  0  0  0  0  0  0  0  0  0  0
  2  3  1  0
  3  6  2  0
  1  2  2  0
  5  4  2  0
  6  7  1  0
  7  8  1  0
  8  9  1  0
  9  5  1  0
  4  1  1  0
  8 10  1  0
  5  6  1  0
 10 11  2  0
M  END

> <chembl_id>
CHEMBL1766319

> <chembl_pref_name>
None

$$$$

     RDKit          2D

 10 10  0  0  0  0  0  0  0  0999 V2000
    3.6682    0.9488    0.0000 N   0  0  0  0  0  0  0  0  0  0  0  0
    5.8116   -1.1138    0.0000 N   0  0  0  0  0  0  0  0  0  0  0  0
    4.3827   -0.2888    0.0000 C   0  0  0  0  0  0  0  0  0  0  0  0
    2.9538   -0.2887    0.0000 C   0  0  0  0  0  0  0  0  0  0  0  0
    4.3827    0.5362    0.0000 C   0  0  0  0  0  0  0  0  0  0  0  0
    3.6682   -0.7012    0.0000 C   0  0  0  0  0  0  0  0  0  0  0  0
    2.9538    0.5363    0.0000 C   0  0  0  0  0  0  0  0  0  0  0  0
    5.0972   -0.7013    0.0000 C   0  0  0  0  0  0  0  0  0  0  0  0
    3.6682    1.7738    0.0000 C   0  0  0  0  0  0  0  0  0  0  0  0
    2.2393   -0.7012    0.0000 C   0  0  0  0  0  0  0  0  0  0  0  0
  1  5  1  0
  1  7  2  0
  1  9  1  0
  2  8  3  0
  3  5  2  0
  3  6  1  0
  3  8  1  0
  4  6  2  0
  4  7  1  0
  4 10  1  0
M  CHG  1   1   1
M  END

> <chembl_id>
CHEMBL2009208

> <chembl_pref_name>
None

$$$$

     RDKit          2D

  8  8  0  0  0  0  0  0  0  0999 V2000
    1.8955  -15.7035    0.0000 N   0  0  0  0  0  0  0  0  0  0  0  0
    2.6022  -15.2930    0.0000 C   0  0  0  0  0  0  0  0  0  0  0  0
    3.3194  -15.7146    0.0000 N   0  0  0  0  0  0  0  0  0  0  0  0
    1.8945  -16.5284    0.0000 C   0  0  0  0  0  0  0  0  0  0  0  0
    1.1804  -15.2955    0.0000 C   0  0  0  0  0  0  0  0  0  0  0  0
    1.1810  -14.4705    0.0000 C   0  0  0  0  0  0  0  0  0  0  0  0
    1.8919  -14.0564    0.0000 N   0  0  0  0  0  0  0  0  0  0  0  0
    2.6014  -14.4670    0.0000 C   0  0  0  0  0  0  0  0  0  0  0  0
  1  2  1  0
  2  3  2  0
  1  4  1  0
  1  5  1  0
  5  6  2  0
  6  7  1  0
  7  8  2  0
  8  2  1  0
M  END

> <chembl_id>
CHEMBL3303311

> <chembl_pref_name>
None

$$$$

     RDKit          2D

 11 11  0  0  0  0  0  0  0  0999 V2000
    2.1450    0.0000    0.0000 N   0  0  0  0  0  0  0  0  0  0  0  0
    1.4300   -0.4150    0.0000 C   0  0  0  0  0  0  0  0  0  0  0  0
    1.4300   -1.2400    0.0000 C   0  0  0  0  0  0  0  0  0  0  0  0
    0.7150    0.0000    0.0000 C   0  0  0  0  0  0  0  0  0  0  0  0
    0.7150   -1.6450    0.0000 C   0  0  0  0  0  0  0  0  0  0  0  0
    0.0000   -0.4150    0.0000 C   0  0  0  0  0  0  0  0  0  0  0  0
    0.0000   -1.2400    0.0000 C   0  0  0  0  0  0  0  0  0  0  0  0
    2.8550   -0.4150    0.0000 C   0  0  0  0  0  0  0  0  0  0  0  0
    3.5700    0.0000    0.0000 C   0  0  0  0  0  0  0  0  0  0  0  0
    4.2850   -0.4050    0.0000 C   0  0  0  0  0  0  0  0  0  0  0  0
    5.0000    0.0000    0.0000 C   0  0  0  0  0  0  0  0  0  0  0  0
  1  2  1  0
  1  8  1  0
  2  3  2  0
  2  4  1  0
  3  5  1  0
  4  6  2  0
  5  7  2  0
  6  7  1  0
  8  9  1  0
  9 10  1  0
 10 11  1  0
M  END

> <chembl_id>
CHEMBL3187651

> <chembl_pref_name>
None

$$$$

     RDKit          2D

 10 10  0  0  0  0  0  0  0  0999 V2000
   11.2535   -1.7335    0.0000 C   0  0  0  0  0  0  0  0  0  0  0  0
   11.2524   -2.5608    0.0000 C   0  0  0  0  0  0  0  0  0  0  0  0
   11.9672   -2.9738    0.0000 N   0  0  0  0  0  0  0  0  0  0  0  0
   12.6837   -2.5604    0.0000 C   0  0  0  0  0  0  0  0  0  0  0  0
   12.6808   -1.7298    0.0000 C   0  0  0  0  0  0  0  0  0  0  0  0
   11.9654   -1.3206    0.0000 C   0  0  0  0  0  0  0  0  0  0  0  0
   13.3988   -2.9718    0.0000 O   0  0  0  0  0  0  0  0  0  0  0  0
   11.9670   -3.7988    0.0000 C   0  0  0  0  0  0  0  0  0  0  0  0
   14.1127   -2.5581    0.0000 C   0  0  0  0  0  0  0  0  0  0  0  0
   13.3938   -1.3145    0.0000 F   0  0  0  0  0  0  0  0  0  0  0  0
  1  2  2  0
  2  3  1  0
  3  4  2  0
  4  5  1  0
  5  6  2  0
  6  1  1  0
  4  7  1  0
  3  8  1  0
  7  9  1  0
  5 10  1  0
M  CHG  1   3   1
M  END

> <chembl_id>
CHEMBL3558892

> <chembl_pref_name>
None

$$$$

     RDKit          2D

  9  9  0  0  0  0  0  0  0  0999 V2000
    2.8594   -1.6499    0.0000 Cl  0  0  0  0  0  0  0  0  0  0  0  0
    0.0000    0.0000    0.0000 N   0  0  0  0  0  0  0  0  0  0  0  0
    0.7148   -1.2381    0.0000 C   0  0  0  0  0  0  0  0  0  0  0  0
    0.7148   -0.4118    0.0000 C   0  0  0  0  0  0  0  0  0  0  0  0
    2.1445   -1.2381    0.0000 C   0  0  0  0  0  0  0  0  0  0  0  0
    1.4297   -1.6499    0.0000 C   0  0  0  0  0  0  0  0  0  0  0  0
    1.4297    0.0000    0.0000 C   0  0  0  0  0  0  0  0  0  0  0  0
    2.1445   -0.4118    0.0000 C   0  0  0  0  0  0  0  0  0  0  0  0
    0.0000   -1.6499    0.0000 C   0  0  0  0  0  0  0  0  0  0  0  0
  1  5  1  0
  2  4  1  0
  3  4  2  0
  3  6  1  0
  3  9  1  0
  4  7  1  0
  5  6  2  0
  5  8  1  0
  7  8  2  0
M  END

> <chembl_id>
CHEMBL3181910

> <chembl_pref_name>
None

$$$$

     RDKit          2D

 10 10  0  0  0  0  0  0  0  0999 V2000
   -0.5069    0.5760    0.0000 O   0  0  0  0  0  0  0  0  0  0  0  0
   -0.0220   -0.0915    0.0000 C   0  0  0  0  0  0  0  0  0  0  0  0
   -0.5069   -0.7589    0.0000 C   0  0  0  0  0  0  0  0  0  0  0  0
   -1.2915   -0.5040    0.0000 C   0  0  0  0  0  0  0  0  0  0  0  0
   -1.2915    0.3210    0.0000 C   0  0  0  0  0  0  0  0  0  0  0  0
    0.8030   -0.0915    0.0000 C   0  0  0  0  0  0  0  0  0  0  0  0
    1.2155   -0.8059    0.0000 O   0  0  0  0  0  0  0  0  0  0  0  0
    1.2155    0.6230    0.0000 O   0  0  0  0  0  0  0  0  0  0  0  0
   -1.9589    0.8059    0.0000 C   0  0  0  0  0  0  0  0  0  0  0  0
   -2.7126    0.4704    0.0000 N   0  0  0  0  0  0  0  0  0  0  0  0
  1  2  1  0
  2  3  2  0
  3  4  1  0
  4  5  2  0
  1  5  1  0
  6  7  2  0
  6  8  1  0
  2  6  1  0
  9 10  1  0
  5  9  1  0
M  END

> <chembl_id>
CHEMBL2220117

> <chembl_pref_name>
None

$$$$

     RDKit          2D

  9  9  0  0  0  0  0  0  0  0999 V2000
    0.7142   -1.6377    0.0000 N   0  0  0  0  0  0  0  0  0  0  0  0
    0.7142    0.0000    0.0000 N   0  0  0  0  0  0  0  0  0  0  0  0
    1.4308   -1.2215    0.0000 C   0  0  0  0  0  0  0  0  0  0  0  0
    1.4308   -0.4063    0.0000 C   0  0  0  0  0  0  0  0  0  0  0  0
    0.0000   -1.2215    0.0000 C   0  0  0  0  0  0  0  0  0  0  0  0
    0.0000   -0.3965    0.0000 C   0  0  0  0  0  0  0  0  0  0  0  0
    2.1450   -1.6377    0.0000 C   0  0  0  0  0  0  0  0  0  0  0  0
    2.1352    0.0000    0.0000 C   0  0  0  0  0  0  0  0  0  0  0  0
    2.1352   -2.4627    0.0000 C   0  0  0  0  0  0  0  0  0  0  0  0
  1  3  2  0
  1  5  1  0
  2  4  2  0
  2  6  1  0
  3  4  1  0
  3  7  1  0
  4  8  1  0
  5  6  2  0
  7  9  1  0
M  END

> <chembl_id>
CHEMBL3187840

> <chembl_pref_name>
None

$$$$

     RDKit          2D

  8  7  0  0  0  0  0  0  0  0999 V2000
    1.5410   -0.0298    0.0000 Na  0  0  0  0  0 15  0  0  0  0  0  0
    0.7160    0.0000    0.0000 S   0  0  0  0  0  0  0  0  0  0  0  0
    0.7160   -0.8250    0.0000 C   0  0  0  0  0  0  0  0  0  0  0  0
    1.4320   -1.2338    0.0000 C   0  0  0  0  0  0  0  0  0  0  0  0
    0.0000   -1.2338    0.0000 C   0  0  0  0  0  0  0  0  0  0  0  0
    1.4320   -2.0588    0.0000 C   0  0  0  0  0  0  0  0  0  0  0  0
    0.0000   -2.0588    0.0000 C   0  0  0  0  0  0  0  0  0  0  0  0
    0.7160   -2.4775    0.0000 C   0  0  0  0  0  0  0  0  0  0  0  0
  2  3  1  0
  3  4  2  0
  3  5  1  0
  4  6  1  0
  5  7  2  0
  6  8  2  0
  7  8  1  0
M  CHG  2   1   1   2  -1
M  END

> <chembl_id>
CHEMBL3182565

> <chembl_pref_name>
None

$$$$

     RDKit          2D

 10 10  0  0  0  0  0  0  0  0999 V2000
    0.8250    0.0000    0.0000 O   0  0  0  0  0  0  0  0  0  0  0  0
    1.2374   -0.7161    0.0000 C   0  0  0  0  0  0  0  0  0  0  0  0
    2.0624   -0.7161    0.0000 C   0  0  0  0  0  0  0  0  0  0  0  0
    0.8250   -1.4321    0.0000 C   0  0  0  0  0  0  0  0  0  0  0  0
    2.4749   -1.4321    0.0000 C   0  0  0  0  0  0  0  0  0  0  0  0
    1.2374   -2.1449    0.0000 C   0  0  0  0  0  0  0  0  0  0  0  0
    2.0624   -2.1449    0.0000 C   0  0  0  0  0  0  0  0  0  0  0  0
    2.4749    0.0000    0.0000 C   0  0  0  0  0  0  0  0  0  0  0  0
    0.0000   -1.4321    0.0000 C   0  0  0  0  0  0  0  0  0  0  0  0
    3.2999   -1.4321    0.0000 C   0  0  0  0  0  0  0  0  0  0  0  0
  1  2  1  0
  2  3  2  0
  2  4  1  0
  3  5  1  0
  3  8  1  0
  4  6  2  0
  4  9  1  0
  5  7  2  0
  5 10  1  0
  6  7  1  0
M  END

> <chembl_id>
CHEMBL3182738

> <chembl_pref_name>
None

$$$$

     RDKit          2D

 10 10  0  0  0  0  0  0  0  0999 V2000
    1.9986   -7.6342    0.0000 C   0  0  0  0  0  0  0  0  0  0  0  0
    2.7074   -7.2197    0.0000 C   0  0  0  0  0  0  0  0  0  0  0  0
    3.4085   -5.9842    0.0000 N   0  0  0  0  0  0  0  0  0  0  0  0
    3.4201   -7.6264    0.0000 O   0  0  0  0  0  0  0  0  0  0  0  0
    2.6997   -6.3947    0.0000 C   0  0  0  0  0  0  0  0  0  0  0  0
    1.9986   -8.4592    0.0000 C   0  0  0  0  0  0  0  0  0  0  0  0
    1.2821   -7.2197    0.0000 C   0  0  0  0  0  0  0  0  0  0  0  0
    1.2821   -8.8697    0.0000 C   0  0  0  0  0  0  0  0  0  0  0  0
    0.5733   -7.6342    0.0000 C   0  0  0  0  0  0  0  0  0  0  0  0
    0.5733   -8.4592    0.0000 C   0  0  0  0  0  0  0  0  0  0  0  0
  2  1  1  0
  3  5  1  0
  2  4  1  6
  5  2  1  0
  6  1  1  0
  7  1  2  0
  8  6  2  0
  9  7  1  0
 10  9  2  0
  8 10  1  0
M  END

> <chembl_id>
CHEMBL19363

> <chembl_pref_name>
None

$$$$

     RDKit          2D

 10 10  0  0  0  0  0  0  0  0999 V2000
    1.2990   -0.7500    0.0000 C   0  0  0  0  0  0  0  0  0  0  0  0
    1.2990    0.7500    0.0000 C   0  0  0  0  0  0  0  0  0  0  0  0
    2.5972    1.5031    0.0000 N   0  0  0  0  0  0  0  0  0  0  0  0
    2.5956   -2.7031    0.0000 N   0  0  0  0  0  0  0  0  0  0  0  0
    2.5973   -1.5031    0.0000 C   0  0  0  0  0  0  0  0  0  0  0  0
    0.0000   -1.5000    0.0000 C   0  0  0  0  0  0  0  0  0  0  0  0
    0.0000    1.5000    0.0000 C   0  0  0  0  0  0  0  0  0  0  0  0
    2.5955    2.7031    0.0000 C   0  0  0  0  0  0  0  0  0  0  0  0
   -1.2990   -0.7500    0.0000 C   0  0  0  0  0  0  0  0  0  0  0  0
   -1.2990    0.7500    0.0000 C   0  0  0  0  0  0  0  0  0  0  0  0
  1  2  1  0
  2  3  1  0
  1  5  1  0
  4  5  1  0
  1  6  2  0
  2  7  2  0
  3  8  1  0
  6  9  1  0
  7 10  1  0
  9 10  2  0
M  END

> <chembl_id>
CHEMBL1188626

> <chembl_pref_name>
None

$$$$

     RDKit          2D

  6  6  0  0  0  0  0  0  0  0999 V2000
    6.2750   -7.1917    0.0000 N   0  0  0  0  0  0  0  0  0  0  0  0
    7.1000   -7.1917    0.0000 N   0  0  0  0  0  0  0  0  0  0  0  0
    7.3568   -6.4076    0.0000 C   0  0  0  0  0  0  0  0  0  0  0  0
    6.6875   -5.9208    0.0000 N   0  0  0  0  0  0  0  0  0  0  0  0
    6.0224   -6.4076    0.0000 C   0  0  0  0  0  0  0  0  0  0  0  0
    5.2377   -6.1530    0.0000 C   0  0  0  0  0  0  0  0  0  0  0  0
  2  3  2  0
  3  4  1  0
  4  5  1  0
  5  1  2  0
  1  2  1  0
  5  6  1  0
M  END

> <chembl_id>
CHEMBL1935517

> <chembl_pref_name>
None

$$$$

     RDKit          2D

 10 10  0  0  0  0  0  0  0  0999 V2000
    3.7277  -21.5575    0.0000 N   0  0  0  0  0  0  0  0  0  0  0  0
    3.7264  -22.3849    0.0000 C   0  0  0  0  0  0  0  0  0  0  0  0
    4.4413  -22.7977    0.0000 N   0  0  0  0  0  0  0  0  0  0  0  0
    5.1576  -22.3844    0.0000 C   0  0  0  0  0  0  0  0  0  0  0  0
    5.1548  -21.5539    0.0000 C   0  0  0  0  0  0  0  0  0  0  0  0
    4.4395  -21.1448    0.0000 C   0  0  0  0  0  0  0  0  0  0  0  0
    5.8676  -21.1387    0.0000 C   0  0  0  0  0  0  0  0  0  0  0  0
    6.5789  -20.7201    0.0000 C   0  0  0  0  0  0  0  0  0  0  0  0
    7.2899  -20.3016    0.0000 C   0  0  0  0  0  0  0  0  0  0  0  0
    8.0078  -20.7082    0.0000 N   0  0  0  0  0  0  0  0  0  0  0  0
  1  2  2  0
  2  3  1  0
  3  4  2  0
  4  5  1  0
  5  6  2  0
  6  1  1  0
  5  7  1  0
  7  8  3  0
  8  9  1  0
  9 10  1  0
M  END


> <chembl_id>
CHEMBL4301243

> <chembl_pref_name>
None

$$$$

     RDKit          2D

 10 10  0  0  0  0  0  0  0  0999 V2000
    5.1292   -5.7875    0.0000 N   0  0  0  0  0  0  0  0  0  0  0  0
    5.8417   -2.8958    0.0000 N   0  0  0  0  0  0  0  0  0  0  0  0
    5.8458   -5.3750    0.0000 C   0  0  0  0  0  0  0  0  0  0  0  0
    4.4167   -5.3750    0.0000 C   0  0  0  0  0  0  0  0  0  0  0  0
    5.1250   -3.3083    0.0000 C   0  0  0  0  0  0  0  0  0  0  0  0
    5.1292   -4.1333    0.0000 C   0  0  0  0  0  0  0  0  0  0  0  0
    5.8375   -2.0708    0.0000 O   0  0  0  0  0  0  0  0  0  0  0  0
    5.1250   -6.6083    0.0000 C   0  0  0  0  0  0  0  0  0  0  0  0
    5.8458   -4.5458    0.0000 C   0  0  0  0  0  0  0  0  0  0  0  0
    4.4167   -4.5458    0.0000 C   0  0  0  0  0  0  0  0  0  0  0  0
  2  5  2  0
  3  1  2  0
  4  1  1  0
  5  6  1  0
  6  9  2  0
  7  2  1  0
  8  1  1  0
  9  3  1  0
 10  4  2  0
 10  6  1  0
M  CHG  1   1   1
M  END

> <chembl_id>
CHEMBL349682

> <chembl_pref_name>
None

$$$$

     RDKit          2D

  9  9  0  0  0  0  0  0  0  0999 V2000
   10.8750    0.1583    0.0000 C   0  0  0  0  0  0  0  0  0  0  0  0
   10.8750   -0.4417    0.0000 C   0  0  0  0  0  0  0  0  0  0  0  0
   10.3542    0.4583    0.0000 C   0  0  0  0  0  0  0  0  0  0  0  0
    9.8375    0.1583    0.0000 C   0  0  0  0  0  0  0  0  0  0  0  0
   10.3542   -0.7417    0.0000 O   0  0  0  0  0  0  0  0  0  0  0  0
    9.8375   -0.4417    0.0000 C   0  0  0  0  0  0  0  0  0  0  0  0
   10.3500    1.0583    0.0000 O   0  0  0  0  0  0  0  0  0  0  0  0
   11.3917    0.4625    0.0000 O   0  0  0  0  0  0  0  0  0  0  0  0
   11.3917   -0.7417    0.0000 C   0  0  0  0  0  0  0  0  0  0  0  0
  2  1  2  0
  3  1  1  0
  4  3  1  0
  5  2  1  0
  6  4  2  0
  7  3  2  0
  8  1  1  0
  9  2  1  0
  6  5  1  0
M  END

> <chembl_id>
CHEMBL31422

> <chembl_pref_name>
MALTOL

$$$$

     RDKit          2D

  9  9  0  0  0  0  0  0  0  0999 V2000
   14.9361   -3.2814    0.0000 C   0  0  0  0  0  0  0  0  0  0  0  0
   14.9349   -4.1084    0.0000 C   0  0  0  0  0  0  0  0  0  0  0  0
   15.6494   -4.5209    0.0000 C   0  0  0  0  0  0  0  0  0  0  0  0
   16.3654   -4.1079    0.0000 C   0  0  0  0  0  0  0  0  0  0  0  0
   16.3625   -3.2778    0.0000 C   0  0  0  0  0  0  0  0  0  0  0  0
   15.6476   -2.8689    0.0000 C   0  0  0  0  0  0  0  0  0  0  0  0
   15.6451   -2.0444    0.0000 O   0  0  0  0  0  0  0  0  0  0  0  0
   17.0801   -4.5190    0.0000 O   0  0  0  0  0  0  0  0  0  0  0  0
   14.2201   -4.5204    0.0000 C   0  0  0  0  0  0  0  0  0  0  0  0
  4  5  1  0
  2  3  1  0
  5  6  2  0
  6  1  1  0
  1  2  2  0
  6  7  1  0
  3  4  2  0
  4  8  1  0
  2  9  1  0
M  END

> <chembl_id>
CHEMBL110059

> <chembl_pref_name>
ORCINOL

$$$$

     RDKit          2D

 11 11  0  0  0  0  0  0  0  0999 V2000
   12.0902    2.0917    0.0000 C   0  0  0  0  0  0  0  0  0  0  0  0
   12.0891    1.2643    0.0000 C   0  0  0  0  0  0  0  0  0  0  0  0
   12.8039    0.8515    0.0000 C   0  0  0  0  0  0  0  0  0  0  0  0
   13.5203    1.2648    0.0000 C   0  0  0  0  0  0  0  0  0  0  0  0
   13.5175    2.0953    0.0000 C   0  0  0  0  0  0  0  0  0  0  0  0
   12.8021    2.5045    0.0000 C   0  0  0  0  0  0  0  0  0  0  0  0
   12.7996    3.3295    0.0000 C   0  0  0  0  0  0  0  0  0  0  0  0
   13.5129    3.7441    0.0000 O   0  0  0  0  0  0  0  0  0  0  0  0
   12.8037    0.0265    0.0000 C   0  0  0  0  0  0  0  0  0  0  0  0
   12.0891   -0.3859    0.0000 C   0  0  0  0  0  0  0  0  0  0  0  0
   13.5181   -0.3862    0.0000 C   0  0  0  0  0  0  0  0  0  0  0  0
  5  6  2  0
  6  1  1  0
  1  2  2  0
  6  7  1  0
  3  4  2  0
  7  8  2  0
  3  9  1  0
  4  5  1  0
  9 10  1  0
  2  3  1  0
  9 11  1  0
M  END

> <chembl_id>
CHEMBL161577

> <chembl_pref_name>
CUMINALDEHYDE

$$$$

     RDKit          2D

  9  9  0  0  0  0  0  0  0  0999 V2000
   -2.8037   -1.8778    0.0000 C   0  0  0  0  0  0  0  0  0  0  0  0
   -2.8049   -2.7046    0.0000 C   0  0  0  0  0  0  0  0  0  0  0  0
   -2.0905   -3.1172    0.0000 C   0  0  0  0  0  0  0  0  0  0  0  0
   -1.3745   -2.7041    0.0000 C   0  0  0  0  0  0  0  0  0  0  0  0
   -1.3774   -1.8742    0.0000 C   0  0  0  0  0  0  0  0  0  0  0  0
   -2.0923   -1.4654    0.0000 C   0  0  0  0  0  0  0  0  0  0  0  0
   -2.0947   -0.6410    0.0000 O   0  0  0  0  0  0  0  0  0  0  0  0
   -2.0907   -3.9417    0.0000 C   0  0  0  0  0  0  0  0  0  0  0  0
   -2.0985   -4.7634    0.0000 N   0  0  0  0  0  0  0  0  0  0  0  0
  4  5  1  0
  2  3  1  0
  5  6  2  0
  6  1  1  0
  1  2  2  0
  6  7  1  0
  3  4  2  0
  3  8  1  0
  8  9  3  0
M  END

> <chembl_id>
CHEMBL66381

> <chembl_pref_name>
4-CYANOPHENOL

$$$$

     RDKit          2D

  8  8  0  0  0  0  0  0  0  0999 V2000
    9.9125  -19.9862    0.0000 C   0  0  0  0  0  0  0  0  0  0  0  0
    9.9113  -20.8129    0.0000 C   0  0  0  0  0  0  0  0  0  0  0  0
   10.6257  -21.2255    0.0000 C   0  0  0  0  0  0  0  0  0  0  0  0
   11.3416  -20.8125    0.0000 C   0  0  0  0  0  0  0  0  0  0  0  0
   11.3387  -19.9825    0.0000 C   0  0  0  0  0  0  0  0  0  0  0  0
   10.6239  -19.5736    0.0000 C   0  0  0  0  0  0  0  0  0  0  0  0
   10.6214  -18.7492    0.0000 C   0  0  0  0  0  0  0  0  0  0  0  0
   12.0562  -21.2235    0.0000 Cl  0  0  0  0  0  0  0  0  0  0  0  0
  4  5  1  0
  2  3  1  0
  5  6  2  0
  6  1  1  0
  1  2  2  0
  6  7  1  0
  3  4  2  0
  4  8  1  0
M  END

> <chembl_id>
CHEMBL1797289

> <chembl_pref_name>
None

$$$$

     RDKit          2D

 10 10  0  0  0  0  0  0  0  0999 V2000
    0.0010   -1.2387    0.0000 C   0  0  0  0  0  0  0  0  0  0  0  0
   -0.7135   -0.8262    0.0000 C   0  0  0  0  0  0  0  0  0  0  0  0
   -0.7135   -0.0012    0.0000 C   0  0  0  0  0  0  0  0  0  0  0  0
    0.0010    0.4113    0.0000 C   0  0  0  0  0  0  0  0  0  0  0  0
    0.7154   -0.0012    0.0000 C   0  0  0  0  0  0  0  0  0  0  0  0
    0.7154   -0.8262    0.0000 C   0  0  0  0  0  0  0  0  0  0  0  0
    0.0010   -2.0637    0.0000 O   0  0  0  0  0  0  0  0  0  0  0  0
   -0.7135    1.6488    0.0000 O   0  0  0  0  0  0  0  0  0  0  0  0
    0.0010    1.2363    0.0000 C   0  0  0  0  0  0  0  0  0  0  0  0
    0.7154    1.6488    0.0000 C   0  0  0  0  0  0  0  0  0  0  0  0
  1  2  2  0
  1  6  1  0
  1  7  1  0
  2  3  1  0
  3  4  2  0
  4  5  1  0
  4  9  1  0
  5  6  2  0
  9  8  2  0
  9 10  1  0
M  END

> <chembl_id>
CHEMBL201083

> <chembl_pref_name>
4-HYDROXYACETOPHENONE

$$$$

     RDKit          2D

  8  7  0  0  0  0  0  0  0  0999 V2000
    0.0000   -0.7143    0.0000 N   0  0  0  0  0  0  0  0  0  0  0  0
    0.8231   -0.7143    0.0000 C   0  0  0  0  0  0  0  0  0  0  0  0
    1.2358    0.0000    0.0000 C   0  0  0  0  0  0  0  0  0  0  0  0
    1.2358   -1.4286    0.0000 C   0  0  0  0  0  0  0  0  0  0  0  0
    2.0589    0.0000    0.0000 C   0  0  0  0  0  0  0  0  0  0  0  0
    2.0589   -1.4286    0.0000 C   0  0  0  0  0  0  0  0  0  0  0  0
    2.4717   -0.7143    0.0000 C   0  0  0  0  0  0  0  0  0  0  0  0
    1.5399   -2.1133    0.0000 Cl  0  0  0  0  0  0  0  0  0  0  0  0
  1  2  1  0
  2  3  2  0
  2  4  1  0
  3  5  1  0
  4  6  2  0
  5  7  2  0
  6  7  1  0
M  END

> <chembl_id>
CHEMBL3182415

> <chembl_pref_name>
None

$$$$

     RDKit          2D

  9  9  0  0  0  0  0  0  0  0999 V2000
    5.0667   -4.8042    0.0000 C   0  0  0  0  0  0  0  0  0  0  0  0
    4.4542   -4.4417    0.0000 N   0  0  0  0  0  0  0  0  0  0  0  0
    5.6875   -4.4375    0.0000 N   0  0  0  0  0  0  0  0  0  0  0  0
    4.4542   -5.8750    0.0000 N   0  0  0  0  0  0  0  0  0  0  0  0
    5.0667   -5.5250    0.0000 C   0  0  0  0  0  0  0  0  0  0  0  0
    3.8292   -4.8042    0.0000 C   0  0  0  0  0  0  0  0  0  0  0  0
    3.8292   -5.5042    0.0000 C   0  0  0  0  0  0  0  0  0  0  0  0
    6.3125   -4.7875    0.0000 C   0  0  0  0  0  0  0  0  0  0  0  0
    5.7000   -3.7625    0.0000 C   0  0  0  0  0  0  0  0  0  0  0  0
  2  1  1  0
  3  1  1  0
  4  5  1  0
  5  1  2  0
  6  2  2  0
  7  4  2  0
  8  3  1  0
  9  3  1  0
  6  7  1  0
M  END

> <chembl_id>
CHEMBL2110770

> <chembl_pref_name>
AMPYZINE

$$$$

     RDKit          2D

 10 10  0  0  0  0  0  0  0  0999 V2000
   -1.2859   -1.8816    0.0000 O   0  0  0  0  0  0  0  0  0  0  0  0
   -2.0003   -0.6441    0.0000 O   0  0  0  0  0  0  0  0  0  0  0  0
    0.8575   -0.6441    0.0000 N   0  0  0  0  0  0  0  0  0  0  0  0
    0.1431    1.4184    0.0000 N   0  0  0  0  0  0  0  0  0  0  0  0
   -0.5714   -0.6441    0.0000 C   0  0  0  0  0  0  0  0  0  0  0  0
   -1.2859   -1.0566    0.0000 C   0  0  0  0  0  0  0  0  0  0  0  0
   -0.5714    0.1809    0.0000 C   0  0  0  0  0  0  0  0  0  0  0  0
    0.1431    0.5934    0.0000 C   0  0  0  0  0  0  0  0  0  0  0  0
    0.1431   -1.0566    0.0000 C   0  0  0  0  0  0  0  0  0  0  0  0
    0.8575    0.1809    0.0000 C   0  0  0  0  0  0  0  0  0  0  0  0
  1  6  2  0
  2  6  1  0
  3  9  2  0
  3 10  1  0
  4  8  1  0
  5  6  1  0
  5  7  2  0
  5  9  1  0
  7  8  1  0
  8 10  2  0
M  END

> <chembl_id>
CHEMBL1491941

> <chembl_pref_name>
None

$$$$

     RDKit          2D

  8  8  0  0  0  0  0  0  0  0999 V2000
   -2.8997    0.9369    0.0000 C   0  0  0  0  0  0  0  0  0  0  0  0
   -2.9009    0.1101    0.0000 C   0  0  0  0  0  0  0  0  0  0  0  0
   -2.1865   -0.3025    0.0000 C   0  0  0  0  0  0  0  0  0  0  0  0
   -1.4704    0.1105    0.0000 C   0  0  0  0  0  0  0  0  0  0  0  0
   -1.4733    0.9406    0.0000 C   0  0  0  0  0  0  0  0  0  0  0  0
   -2.1883    1.3495    0.0000 C   0  0  0  0  0  0  0  0  0  0  0  0
   -3.6139    1.3491    0.0000 C   0  0  0  0  0  0  0  0  0  0  0  0
   -4.3308    1.7615    0.0000 N   0  0  0  0  0  0  0  0  0  0  0  0
  4  5  1  0
  2  3  1  0
  5  6  2  0
  6  1  1  0
  1  2  2  0
  1  7  1  0
  3  4  2  0
  7  8  3  0
M  END

> <chembl_id>
CHEMBL15819

> <chembl_pref_name>
BENZONITRILE

$$$$

     RDKit          2D

 11 12  0  0  0  0  0  0  0  0999 V2000
   15.4139   -8.0401    0.0000 C   0  0  0  0  0  0  0  0  0  0  0  0
   15.4127   -8.8651    0.0000 C   0  0  0  0  0  0  0  0  0  0  0  0
   16.1256   -9.2768    0.0000 C   0  0  0  0  0  0  0  0  0  0  0  0
   16.1238   -7.6284    0.0000 C   0  0  0  0  0  0  0  0  0  0  0  0
   16.8371   -8.0364    0.0000 C   0  0  0  0  0  0  0  0  0  0  0  0
   16.8405   -8.8626    0.0000 C   0  0  0  0  0  0  0  0  0  0  0  0
   17.5538   -9.2704    0.0000 C   0  0  0  0  0  0  0  0  0  0  0  0
   18.2683   -8.8567    0.0000 C   0  0  0  0  0  0  0  0  0  0  0  0
   18.2649   -8.0306    0.0000 C   0  0  0  0  0  0  0  0  0  0  0  0
   17.5471   -7.6182    0.0000 O   0  0  0  0  0  0  0  0  0  0  0  0
   17.5560  -10.0932    0.0000 O   0  0  0  0  0  0  0  0  0  0  0  0
  2  3  1  0
  3  6  2  0
  1  2  2  0
  5  4  2  0
  4  1  1  0
  5 10  1  0
  6  7  1  0
  7  8  1  0
  8  9  1  0
  9 10  1  0
  5  6  1  0
  7 11  2  0
M  END

> <chembl_id>
CHEMBL453987

> <chembl_pref_name>
CHROMANONE

$$$$

     RDKit          2D

  8  8  0  0  0  0  0  0  0  0999 V2000
   -3.8952   -3.7313    0.0000 C   0  0  0  0  0  0  0  0  0  0  0  0
   -3.8963   -4.5583    0.0000 C   0  0  0  0  0  0  0  0  0  0  0  0
   -3.1819   -4.9709    0.0000 C   0  0  0  0  0  0  0  0  0  0  0  0
   -2.4659   -4.5578    0.0000 C   0  0  0  0  0  0  0  0  0  0  0  0
   -2.4687   -3.7277    0.0000 C   0  0  0  0  0  0  0  0  0  0  0  0
   -3.1837   -3.3188    0.0000 C   0  0  0  0  0  0  0  0  0  0  0  0
   -3.1862   -2.4942    0.0000 N   0  0  0  0  0  0  0  0  0  0  0  0
   -1.7562   -3.3128    0.0000 Cl  0  0  0  0  0  0  0  0  0  0  0  0
  4  5  1  0
  2  3  1  0
  5  6  2  0
  6  1  1  0
  1  2  2  0
  6  7  1  0
  3  4  2  0
  5  8  1  0
M  END

> <chembl_id>
CHEMBL389885

> <chembl_pref_name>
None

$$$$

     RDKit          2D

 10 10  0  0  0  0  0  0  0  0999 V2000
    8.3728   -0.9042    0.0000 C   0  0  0  0  0  0  0  0  0  0  0  0
    9.0873   -1.3167    0.0000 C   0  0  0  0  0  0  0  0  0  0  0  0
    9.8017   -0.9042    0.0000 N   0  0  0  0  0  0  0  0  0  0  0  0
   10.5162   -1.3167    0.0000 C   0  0  0  0  0  0  0  0  0  0  0  0
   11.2250   -1.7250    0.0000 S   0  0  0  0  0  0  0  0  0  0  0  0
    8.3776   -0.0781    0.0000 C   0  0  0  0  0  0  0  0  0  0  0  0
    7.6639    0.3343    0.0000 C   0  0  0  0  0  0  0  0  0  0  0  0
    6.9485   -0.0782    0.0000 C   0  0  0  0  0  0  0  0  0  0  0  0
    6.9511   -0.9075    0.0000 C   0  0  0  0  0  0  0  0  0  0  0  0
    7.6653   -1.3162    0.0000 C   0  0  0  0  0  0  0  0  0  0  0  0
  2  3  1  0
  1  6  2  0
  1  2  1  0
  6  7  1  0
  3  4  2  0
  7  8  2  0
  8  9  1  0
  4  5  2  0
  9 10  2  0
 10  1  1  0
M  END

> <chembl_id>
CHEMBL55285

> <chembl_pref_name>
BENZYL ISOTHIOCYANATE

$$$$

     RDKit          2D

  8  8  0  0  0  0  0  0  0  0999 V2000
   -1.2583    0.4583    0.0000 C   0  0  0  0  0  0  0  0  0  0  0  0
   -1.8333    0.6583    0.0000 N   0  0  0  0  0  0  0  0  0  0  0  0
   -0.7708    0.7958    0.0000 N   0  0  0  0  0  0  0  0  0  0  0  0
   -0.4708   -0.1167    0.0000 N   0  0  0  0  0  0  0  0  0  0  0  0
   -1.0708   -0.1167    0.0000 C   0  0  0  0  0  0  0  0  0  0  0  0
   -0.2833    0.4583    0.0000 C   0  0  0  0  0  0  0  0  0  0  0  0
   -1.9458    1.2458    0.0000 O   0  0  0  0  0  0  0  0  0  0  0  0
   -2.2958    0.2583    0.0000 O   0  0  0  0  0  0  0  0  0  0  0  0
  2  1  1  0
  3  1  1  0
  4  5  1  0
  5  1  2  0
  6  3  2  0
  7  2  1  0
  8  2  2  0
  6  4  1  0
M  CHG  2   2   1   7  -1
M  END

> <chembl_id>
CHEMBL135599

> <chembl_pref_name>
None

$$$$

     RDKit          2D

  9  9  0  0  0  0  0  0  0  0999 V2000
    1.0545    2.9403    0.0000 P   0  0  0  0  0  0  0  0  0  0  0  0
    1.7690    3.3528    0.0000 O   0  0  0  0  0  0  0  0  0  0  0  0
    0.3400    3.3528    0.0000 O   0  0  0  0  0  0  0  0  0  0  0  0
    0.3400    0.8778    0.0000 N   0  0  0  0  0  0  0  0  0  0  0  0
    1.0545    2.1153    0.0000 C   0  0  0  0  0  0  0  0  0  0  0  0
    0.3400    1.7028    0.0000 C   0  0  0  0  0  0  0  0  0  0  0  0
    1.7690    1.7028    0.0000 C   0  0  0  0  0  0  0  0  0  0  0  0
    1.7690    0.8778    0.0000 C   0  0  0  0  0  0  0  0  0  0  0  0
    1.0545    0.4653    0.0000 C   0  0  0  0  0  0  0  0  0  0  0  0
  1  2  2  0
  1  3  1  0
  1  5  1  0
  4  6  1  0
  4  9  2  0
  5  6  2  0
  5  7  1  0
  7  8  2  0
  8  9  1  0
M  END

> <chembl_id>
CHEMBL2003143

> <chembl_pref_name>
None

$$$$

     RDKit          2D

 10 10  0  0  0  0  0  0  0  0999 V2000
    6.8044  -12.4064    0.0000 C   0  0  0  0  0  0  0  0  0  0  0  0
    6.8032  -13.2259    0.0000 C   0  0  0  0  0  0  0  0  0  0  0  0
    7.5113  -13.6349    0.0000 N   0  0  0  0  0  0  0  0  0  0  0  0
    8.2209  -13.2255    0.0000 C   0  0  0  0  0  0  0  0  0  0  0  0
    8.2181  -12.4028    0.0000 C   0  0  0  0  0  0  0  0  0  0  0  0
    7.5095  -11.9976    0.0000 N   0  0  0  0  0  0  0  0  0  0  0  0
    8.9293  -13.6330    0.0000 O   0  0  0  0  0  0  0  0  0  0  0  0
    8.9243  -11.9916    0.0000 C   0  0  0  0  0  0  0  0  0  0  0  0
    9.6335  -12.3975    0.0000 N   0  0  0  0  0  0  0  0  0  0  0  0
    8.9212  -11.1744    0.0000 O   0  0  0  0  0  0  0  0  0  0  0  0
  1  2  2  0
  2  3  1  0
  3  4  2  0
  4  5  1  0
  5  6  2  0
  6  1  1  0
  4  7  1  0
  5  8  1  0
  8  9  1  0
  8 10  2  0
M  END

> <chembl_id>
CHEMBL4167765

> <chembl_pref_name>
None

$$$$

     RDKit          2D

 11 11  0  0  0  0  0  0  0  0999 V2000
   -2.9457   -0.1875    0.0000 N   0  0  0  0  0  0  0  0  0  0  0  0
   -2.9457   -1.0125    0.0000 C   0  0  0  0  0  0  0  0  0  0  0  0
   -2.9457   -2.6625    0.0000 C   0  0  0  0  0  0  0  0  0  0  0  0
   -2.2312   -1.4250    0.0000 C   0  0  0  0  0  0  0  0  0  0  0  0
   -3.6602   -1.4250    0.0000 C   0  0  0  0  0  0  0  0  0  0  0  0
   -2.2312   -2.2500    0.0000 C   0  0  0  0  0  0  0  0  0  0  0  0
   -3.6602   -2.2500    0.0000 C   0  0  0  0  0  0  0  0  0  0  0  0
   -3.6602    0.2250    0.0000 C   0  0  0  0  0  0  0  0  0  0  0  0
   -2.9457   -3.4875    0.0000 C   0  0  0  0  0  0  0  0  0  0  0  0
   -3.6602    1.0500    0.0000 C   0  0  0  0  0  0  0  0  0  0  0  0
   -4.3746    1.4625    0.0000 C   0  0  0  0  0  0  0  0  0  0  0  0
  1  2  1  0
  1  8  1  0
  2  4  2  0
  2  5  1  0
  3  6  2  0
  3  7  1  0
  3  9  1  0
  4  6  1  0
  5  7  2  0
  8 10  1  0
 10 11  2  0
M  END

> <chembl_id>
CHEMBL1989250

> <chembl_pref_name>
None

$$$$

     RDKit          2D

 10 10  0  0  0  0  0  0  0  0999 V2000
    6.9932  -13.1780    0.0000 C   0  0  0  0  0  0  0  0  0  0  0  0
    7.8182  -13.1780    0.0000 C   0  0  0  0  0  0  0  0  0  0  0  0
    8.2307  -13.8897    0.0000 C   0  0  0  0  0  0  0  0  0  0  0  0
    7.8182  -14.6056    0.0000 C   0  0  0  0  0  0  0  0  0  0  0  0
    6.9932  -14.6056    0.0000 C   0  0  0  0  0  0  0  0  0  0  0  0
    6.5807  -13.8897    0.0000 N   0  0  0  0  0  0  0  0  0  0  0  0
    9.0557  -13.8897    0.0000 C   0  0  0  0  0  0  0  0  0  0  0  0
    9.4682  -14.6056    0.0000 N   0  0  0  0  0  0  0  0  0  0  0  0
    9.4682  -13.1780    0.0000 N   0  0  0  0  0  0  0  0  0  0  0  0
    9.0557  -12.4621    0.0000 N   0  0  0  0  0  0  0  0  0  0  0  0
  1  2  2  0
  2  3  1  0
  3  4  2  0
  4  5  1  0
  5  6  2  0
  1  6  1  0
  9 10  1  0
  7  8  1  0
  7  9  2  0
  3  7  1  0
M  END

> <chembl_id>
CHEMBL201312

> <chembl_pref_name>
None

$$$$

     RDKit          2D

 11 11  0  0  1  0  0  0  0  0999 V2000
    2.1535    0.0000    0.0000 O   0  0  0  0  0  0  0  0  0  0  0  0
    3.5714   -0.8357    0.0000 N   0  0  0  0  0  0  0  0  0  0  0  0
    1.4250   -1.2571    0.0000 C   0  0  0  0  0  0  0  0  0  0  0  0
    2.1535   -0.8357    0.0000 C   0  0  0  0  0  0  0  0  0  0  0  0
    2.8642   -1.2357    0.0000 C   0  0  0  0  0  0  0  0  0  0  0  0
    1.4250   -2.0821    0.0000 C   0  0  0  0  0  0  0  0  0  0  0  0
    0.7071   -0.8357    0.0000 C   0  0  0  0  0  0  0  0  0  0  0  0
    0.7071   -2.4928    0.0000 C   0  0  0  0  0  0  0  0  0  0  0  0
    0.0000   -1.2571    0.0000 C   0  0  0  0  0  0  0  0  0  0  0  0
    0.0000   -2.0821    0.0000 C   0  0  0  0  0  0  0  0  0  0  0  0
    2.8642   -2.0750    0.0000 C   0  0  0  0  0  0  0  0  0  0  0  0
  1  4  2  0
  5  2  1  1
  3  4  1  0
  3  6  2  0
  3  7  1  0
  4  5  1  0
  5 11  1  0
  6  8  1  0
  7  9  2  0
  8 10  2  0
  9 10  1  0
M  END

> <chembl_id>
CHEMBL2104047

> <chembl_pref_name>
CATHINONE

$$$$

     RDKit          2D

 11 11  0  0  0  0  0  0  0  0999 V2000
    6.2042   -2.1792    0.0000 N   0  0  0  0  0  0  0  0  0  0  0  0
    6.2042   -3.0042    0.0000 C   0  0  0  0  0  0  0  0  0  0  0  0
    5.4917   -5.0667    0.0000 C   0  0  0  0  0  0  0  0  0  0  0  0
    6.2042   -5.4792    0.0000 C   0  0  0  0  0  0  0  0  0  0  0  0
    5.4917   -4.2417    0.0000 C   0  0  0  0  0  0  0  0  0  0  0  0
    6.2042   -3.8292    0.0000 C   0  0  0  0  0  0  0  0  0  0  0  0
    6.9167   -5.0667    0.0000 C   0  0  0  0  0  0  0  0  0  0  0  0
    4.7792   -5.4792    0.0000 N   0  0  0  0  0  0  0  0  0  0  0  0
    6.9167   -4.2417    0.0000 C   0  0  0  0  0  0  0  0  0  0  0  0
    6.2042   -6.3042    0.0000 O   0  0  0  0  0  0  0  0  0  0  0  0
    5.4917   -6.7167    0.0000 C   0  0  0  0  0  0  0  0  0  0  0  0
  2  1  3  0
  3  5  1  0
  4  7  1  0
  5  6  2  0
  6  2  1  0
  7  9  2  0
  8  3  1  0
  9  6  1  0
 10  4  1  0
 11 10  1  0
  4  3  2  0
M  END

> <chembl_id>
CHEMBL107894

> <chembl_pref_name>
None

$$$$

     RDKit          2D

  9  9  0  0  1  0  0  0  0  0999 V2000
    3.1667   -1.2250    0.0000 C   0  0  0  0  0  0  0  0  0  0  0  0
    3.1667   -2.0500    0.0000 C   0  0  0  0  0  0  0  0  0  0  0  0
    3.8792   -2.4625    0.0000 O   0  0  0  0  0  0  0  0  0  0  0  0
    3.8875   -0.8125    0.0000 C   0  0  0  0  0  0  0  0  0  0  0  0
    2.4542   -0.8167    0.0000 C   0  0  0  0  0  0  0  0  0  0  0  0
    2.4542   -2.4625    0.0000 C   0  0  0  0  0  0  0  0  0  0  0  0
    2.4542    0.0083    0.0000 C   0  0  0  0  0  0  0  0  0  0  0  0
    3.8875    0.0083    0.0000 C   0  0  0  0  0  0  0  0  0  0  0  0
    3.1750    0.4250    0.0000 C   0  0  0  0  0  0  0  0  0  0  0  0
  2  1  1  1
  3  2  1  0
  4  1  2  0
  5  1  1  0
  6  2  1  0
  7  5  2  0
  8  4  1  0
  9  7  1  0
  8  9  2  0
M  END

> <chembl_id>
CHEMBL348446

> <chembl_pref_name>
None

$$$$

     RDKit          2D

 10 10  0  0  0  0  0  0  0  0999 V2000
   13.2392    2.2553    0.0000 O   0  0  0  0  0  0  0  0  0  0  0  0
   13.7881    1.6430    0.0000 C   0  0  0  0  0  0  0  0  0  0  0  0
   14.5426    1.9764    0.0000 C   0  0  0  0  0  0  0  0  0  0  0  0
   14.4577    2.7987    0.0000 C   0  0  0  0  0  0  0  0  0  0  0  0
   13.6517    2.9711    0.0000 C   0  0  0  0  0  0  0  0  0  0  0  0
   15.2584    1.5639    0.0000 C   0  0  0  0  0  0  0  0  0  0  0  0
   15.9743    1.9764    0.0000 N   0  0  0  0  0  0  0  0  0  0  0  0
   15.2584    0.7389    0.0000 O   0  0  0  0  0  0  0  0  0  0  0  0
   16.6884    1.5633    0.0000 C   0  0  0  0  0  0  0  0  0  0  0  0
   15.9750    2.8014    0.0000 C   0  0  0  0  0  0  0  0  0  0  0  0
  2  3  2  0
  3  4  1  0
  4  5  2  0
  5  1  1  0
  3  6  1  0
  6  7  1  0
  6  8  2  0
  7  9  1  0
  1  2  1  0
  7 10  1  0
M  END

> <chembl_id>
CHEMBL242545

> <chembl_pref_name>
None

$$$$

     RDKit          2D

  9  9  0  0  0  0  0  0  0  0999 V2000
    5.1834    2.8027    0.0000 C   0  0  0  0  0  0  0  0  0  0  0  0
    5.1822    1.9758    0.0000 C   0  0  0  0  0  0  0  0  0  0  0  0
    5.8966    1.5632    0.0000 C   0  0  0  0  0  0  0  0  0  0  0  0
    6.6127    1.9763    0.0000 C   0  0  0  0  0  0  0  0  0  0  0  0
    6.6098    2.8063    0.0000 C   0  0  0  0  0  0  0  0  0  0  0  0
    5.8948    3.2153    0.0000 C   0  0  0  0  0  0  0  0  0  0  0  0
    5.8924    4.0476    0.0000 O   0  0  0  0  0  0  0  0  0  0  0  0
    5.8964    0.7386    0.0000 O   0  0  0  0  0  0  0  0  0  0  0  0
    7.3223    3.2213    0.0000 C   0  0  0  0  0  0  0  0  0  0  0  0
  4  5  1  0
  2  3  1  0
  5  6  2  0
  6  1  1  0
  1  2  2  0
  6  7  1  0
  3  4  2  0
  3  8  1  0
  5  9  1  0
M  END

> <chembl_id>
CHEMBL450917

> <chembl_pref_name>
METHYLHYDROQUINONE

$$$$

     RDKit          2D

  8  8  0  0  0  0  0  0  0  0999 V2000
   -4.1542    0.2208    0.0000 C   0  0  0  0  0  0  0  0  0  0  0  0
   -3.3292    0.2208    0.0000 C   0  0  0  0  0  0  0  0  0  0  0  0
   -3.0724    1.0049    0.0000 N   0  0  0  0  0  0  0  0  0  0  0  0
   -3.7417    1.4917    0.0000 N   0  0  0  0  0  0  0  0  0  0  0  0
   -4.4067    1.0049    0.0000 C   0  0  0  0  0  0  0  0  0  0  0  0
   -2.8451   -0.4472    0.0000 C   0  0  0  0  0  0  0  0  0  0  0  0
   -2.0245   -0.3619    0.0000 O   0  0  0  0  0  0  0  0  0  0  0  0
   -5.1915    1.2595    0.0000 O   0  0  0  0  0  0  0  0  0  0  0  0
  3  4  1  0
  4  5  1  0
  5  1  2  0
  1  2  1  0
  2  6  1  0
  6  7  1  0
  2  3  2  0
  5  8  1  0
M  END

> <chembl_id>
CHEMBL1688204

> <chembl_pref_name>
None

$$$$

     RDKit          2D

  9  9  0  0  0  0  0  0  0  0999 V2000
   -0.0868   -0.5958    0.0000 C   0  0  0  0  0  0  0  0  0  0  0  0
   -0.8013   -0.1833    0.0000 C   0  0  0  0  0  0  0  0  0  0  0  0
   -0.8013    0.6417    0.0000 C   0  0  0  0  0  0  0  0  0  0  0  0
   -0.0868    1.0542    0.0000 C   0  0  0  0  0  0  0  0  0  0  0  0
    0.6276    0.6417    0.0000 C   0  0  0  0  0  0  0  0  0  0  0  0
    0.6276   -0.1833    0.0000 C   0  0  0  0  0  0  0  0  0  0  0  0
   -0.0868   -1.4208    0.0000 C   0  0  0  0  0  0  0  0  0  0  0  0
    0.6276   -1.8333    0.0000 N   0  0  0  0  0  0  0  0  0  0  0  0
   -0.0868    1.8792    0.0000 F   0  0  0  0  0  0  0  0  0  0  0  0
  1  2  2  0
  1  6  1  0
  7  1  1  0
  2  3  1  0
  3  4  2  0
  4  5  1  0
  4  9  1  0
  5  6  2  0
  7  8  1  0
M  END

> <chembl_id>
CHEMBL12392

> <chembl_pref_name>
None

$$$$

     RDKit          2D

  9  9  0  0  0  0  0  0  0  0999 V2000
   23.1048   -9.0466    0.0000 C   0  0  0  0  0  0  0  0  0  0  0  0
   23.1037   -9.8741    0.0000 N   0  0  0  0  0  0  0  0  0  0  0  0
   23.8186  -10.2869    0.0000 C   0  0  0  0  0  0  0  0  0  0  0  0
   24.5350   -9.8736    0.0000 N   0  0  0  0  0  0  0  0  0  0  0  0
   24.5322   -9.0430    0.0000 C   0  0  0  0  0  0  0  0  0  0  0  0
   23.8168   -8.6338    0.0000 C   0  0  0  0  0  0  0  0  0  0  0  0
   23.8184  -11.1120    0.0000 S   0  0  0  0  0  0  0  0  0  0  0  0
   25.2452   -8.6278    0.0000 C   0  0  0  0  0  0  0  0  0  0  0  0
   22.3902   -8.6343    0.0000 C   0  0  0  0  0  0  0  0  0  0  0  0
  4  5  1  0
  2  3  1  0
  5  6  2  0
  6  1  1  0
  1  2  2  0
  3  7  1  0
  3  4  2  0
  5  8  1  0
  1  9  1  0
M  END

> <chembl_id>
CHEMBL1650609

> <chembl_pref_name>
None

$$$$

     RDKit          2D

  7  7  0  0  0  0  0  0  0  0999 V2000
    2.5917    1.1375    0.0000 C   0  0  0  0  0  0  0  0  0  0  0  0
    2.1500   -0.1167    0.0000 S   0  0  0  0  0  0  0  0  0  0  0  0
    2.8292    0.3458    0.0000 C   0  0  0  0  0  0  0  0  0  0  0  0
    1.7667    1.1583    0.0000 C   0  0  0  0  0  0  0  0  0  0  0  0
    1.5000    0.3833    0.0000 C   0  0  0  0  0  0  0  0  0  0  0  0
    3.1000    1.7958    0.0000 C   0  0  0  0  0  0  0  0  0  0  0  0
    3.9167    1.6875    0.0000 O   0  0  0  0  0  0  0  0  0  0  0  0
  2  3  1  0
  3  1  2  0
  4  1  1  0
  5  4  2  0
  6  1  1  0
  7  6  1  0
  2  5  1  0
M  END

> <chembl_id>
CHEMBL76469

> <chembl_pref_name>
None

$$$$

     RDKit          2D

 11 11  0  0  0  0  0  0  0  0999 V2000
    1.3417  -13.6750    0.0000 C   0  0  0  0  0  0  0  0  0  0  0  0
    0.5875  -14.1167    0.0000 N   0  0  0  0  0  0  0  0  0  0  0  0
    1.3375  -12.7917    0.0000 N   0  0  0  0  0  0  0  0  0  0  0  0
    0.5917  -14.9917    0.0000 C   0  0  0  0  0  0  0  0  0  0  0  0
    2.1042  -14.1042    0.0000 N   0  0  0  0  0  0  0  0  0  0  0  0
   -0.1708  -15.4375    0.0000 C   0  0  0  0  0  0  0  0  0  0  0  0
   -0.1708  -16.3167    0.0000 C   0  0  0  0  0  0  0  0  0  0  0  0
    1.3542  -16.3167    0.0000 C   0  0  0  0  0  0  0  0  0  0  0  0
    1.3542  -15.4292    0.0000 C   0  0  0  0  0  0  0  0  0  0  0  0
    0.5917  -16.7625    0.0000 C   0  0  0  0  0  0  0  0  0  0  0  0
   -0.9333  -16.7542    0.0000 C   0  0  0  0  0  0  0  0  0  0  0  0
  2  1  1  0
  3  1  2  0
  4  2  1  0
  5  1  1  0
  6  4  1  0
  7  6  2  0
  8  9  1  0
  9  4  2  0
 10  8  2  0
 11  7  1  0
 10  7  1  0
M  END

> <chembl_id>
CHEMBL295000

> <chembl_pref_name>
None

$$$$

     RDKit          2D

  9  9  0  0  0  0  0  0  0  0999 V2000
    9.4806   -9.5151    0.0000 C   0  0  0  0  0  0  0  0  0  0  0  0
    9.4744  -10.3402    0.0000 C   0  0  0  0  0  0  0  0  0  0  0  0
    8.7575  -10.7461    0.0000 C   0  0  0  0  0  0  0  0  0  0  0  0
    8.0468  -10.3271    0.0000 C   0  0  0  0  0  0  0  0  0  0  0  0
    8.0551   -9.5057    0.0000 C   0  0  0  0  0  0  0  0  0  0  0  0
    8.7719   -9.0997    0.0000 N   0  0  0  0  0  0  0  0  0  0  0  0
    7.3444   -9.0867    0.0000 C   0  0  0  0  0  0  0  0  0  0  0  0
    8.7514  -11.5711    0.0000 C   0  0  0  0  0  0  0  0  0  0  0  0
   10.1975   -9.1091    0.0000 N   0  0  0  0  0  0  0  0  0  0  0  0
  1  2  1  0
  2  3  2  0
  3  4  1  0
  4  5  2  0
  5  6  1  0
  1  6  2  0
  5  7  1  0
  3  8  1  0
  1  9  1  0
M  END

> <chembl_id>
CHEMBL59925

> <chembl_pref_name>
None

$$$$

     RDKit          2D

  7  7  0  0  0  0  0  0  0  0999 V2000
    4.9978  -25.8677    0.0000 N   0  0  0  0  0  0  0  0  0  0  0  0
    5.8075  -26.0076    0.0000 N   0  0  0  0  0  0  0  0  0  0  0  0
    6.1901  -25.2897    0.0000 C   0  0  0  0  0  0  0  0  0  0  0  0
    5.6162  -24.6895    0.0000 O   0  0  0  0  0  0  0  0  0  0  0  0
    4.8756  -25.0548    0.0000 C   0  0  0  0  0  0  0  0  0  0  0  0
    4.1623  -24.6402    0.0000 C   0  0  0  0  0  0  0  0  0  0  0  0
    7.0064  -25.1774    0.0000 S   0  0  0  0  0  0  0  0  0  0  0  0
  2  3  2  0
  3  4  1  0
  4  5  1  0
  5  1  2  0
  1  2  1  0
  5  6  1  0
  3  7  1  0
M  END

> <chembl_id>
CHEMBL501631

> <chembl_pref_name>
None

$$$$

     RDKit          2D

 10 11  0  0  0  0  0  0  0  0999 V2000
   -1.8899   -1.3469    0.0000 N   0  0  0  0  0  0  0  0  0  0  0  0
   -2.3748   -2.0144    0.0000 N   0  0  0  0  0  0  0  0  0  0  0  0
   -2.1448   -3.4664    0.0000 N   0  0  0  0  0  0  0  0  0  0  0  0
   -1.1053   -2.4269    0.0000 C   0  0  0  0  0  0  0  0  0  0  0  0
   -1.1053   -1.6019    0.0000 C   0  0  0  0  0  0  0  0  0  0  0  0
   -1.8899   -2.6818    0.0000 C   0  0  0  0  0  0  0  0  0  0  0  0
   -0.3908   -2.8394    0.0000 C   0  0  0  0  0  0  0  0  0  0  0  0
   -0.3908   -1.1894    0.0000 C   0  0  0  0  0  0  0  0  0  0  0  0
    0.3237   -2.4269    0.0000 C   0  0  0  0  0  0  0  0  0  0  0  0
    0.3237   -1.6019    0.0000 C   0  0  0  0  0  0  0  0  0  0  0  0
  1  2  2  0
  1  5  1  0
  2  6  1  0
  3  6  1  0
  4  5  1  0
  4  6  1  0
  4  7  2  0
  5  8  2  0
  7  9  1  0
  8 10  1  0
  9 10  2  0
M  END

> <chembl_id>
CHEMBL1970842

> <chembl_pref_name>
None

$$$$

     RDKit          2D

 10 10  0  0  0  0  0  0  0  0999 V2000
   -3.8329   -3.0529    0.0000 O   0  0  0  0  0  0  0  0  0  0  0  0
    0.0000    1.2760    0.0000 N   0  0  0  0  0  0  0  0  0  0  0  0
    1.2135    0.3943    0.0000 N   0  0  0  0  0  0  0  0  0  0  0  0
   -3.1255   -2.0835    0.0000 N   0  0  0  0  0  0  0  0  0  0  0  0
   -0.7500   -1.0323    0.0000 C   0  0  0  0  0  0  0  0  0  0  0  0
    0.7500   -1.0323    0.0000 C   0  0  0  0  0  0  0  0  0  0  0  0
   -1.2135    0.3943    0.0000 C   0  0  0  0  0  0  0  0  0  0  0  0
   -1.6332   -2.2426    0.0000 C   0  0  0  0  0  0  0  0  0  0  0  0
    1.4553   -2.0031    0.0000 C   0  0  0  0  0  0  0  0  0  0  0  0
    0.0000    2.4760    0.0000 C   0  0  0  0  0  0  0  0  0  0  0  0
  1  4  1  0
  2  3  1  0
  2  7  1  0
  2 10  1  0
  3  6  2  0
  4  8  2  0
  5  6  1  0
  5  7  2  0
  5  8  1  0
  6  9  1  0
M  END

> <chembl_id>
CHEMBL3212413

> <chembl_pref_name>
None

$$$$

     RDKit          2D

 11 11  0  0  0  0  0  0  0  0999 V2000
    0.5975    0.2816    0.0000 O   0  0  0  0  0  0  0  0  0  0  0  0
    2.7409   -0.9559    0.0000 C   0  0  0  0  0  0  0  0  0  0  0  0
    2.7409   -0.1309    0.0000 C   0  0  0  0  0  0  0  0  0  0  0  0
    2.0264    0.2816    0.0000 C   0  0  0  0  0  0  0  0  0  0  0  0
    3.4554   -1.3684    0.0000 C   0  0  0  0  0  0  0  0  0  0  0  0
    2.0264   -1.3684    0.0000 C   0  0  0  0  0  0  0  0  0  0  0  0
    3.4554   -2.1934    0.0000 C   0  0  0  0  0  0  0  0  0  0  0  0
    2.0264   -2.1934    0.0000 C   0  0  0  0  0  0  0  0  0  0  0  0
    2.7409   -2.6059    0.0000 C   0  0  0  0  0  0  0  0  0  0  0  0
    1.3120   -0.1309    0.0000 C   0  0  0  0  0  0  0  0  0  0  0  0
    2.0264    1.1066    0.0000 C   0  0  0  0  0  0  0  0  0  0  0  0
  1 10  2  0
  2  3  1  0
  2  5  2  0
  2  6  1  0
  3  4  2  0
  4 10  1  0
  4 11  1  0
  5  7  1  0
  6  8  2  0
  7  9  2  0
  8  9  1  0
M  END

> <chembl_id>
CHEMBL1594090

> <chembl_pref_name>
None

$$$$

     RDKit          2D

  9  9  0  0  0  0  0  0  0  0999 V2000
    5.8786   -4.5725    0.0000 C   0  0  0  0  0  0  0  0  0  0  0  0
    5.8775   -5.3993    0.0000 C   0  0  0  0  0  0  0  0  0  0  0  0
    6.5919   -5.8120    0.0000 C   0  0  0  0  0  0  0  0  0  0  0  0
    7.3079   -5.3988    0.0000 C   0  0  0  0  0  0  0  0  0  0  0  0
    7.3051   -4.5688    0.0000 C   0  0  0  0  0  0  0  0  0  0  0  0
    6.5900   -4.1599    0.0000 C   0  0  0  0  0  0  0  0  0  0  0  0
    6.5876   -3.3353    0.0000 O   0  0  0  0  0  0  0  0  0  0  0  0
    8.0176   -4.1538    0.0000 O   0  0  0  0  0  0  0  0  0  0  0  0
    6.5917   -6.6366    0.0000 O   0  0  0  0  0  0  0  0  0  0  0  0
  1  2  2  0
  2  3  1  0
  3  4  2  0
  4  5  1  0
  5  6  2  0
  6  1  1  0
  6  7  1  0
  5  8  1  0
  3  9  1  0
M  END

> <chembl_id>
CHEMBL3092389

> <chembl_pref_name>
None

$$$$

     RDKit          2D

  8  8  0  0  0  0  0  0  0  0999 V2000
    5.2042   -1.3667    0.0000 C   0  0  0  0  0  0  0  0  0  0  0  0
    5.2042   -2.1917    0.0000 C   0  0  0  0  0  0  0  0  0  0  0  0
    5.9167   -2.6042    0.0000 N   0  0  0  0  0  0  0  0  0  0  0  0
    5.9167   -0.9542    0.0000 C   0  0  0  0  0  0  0  0  0  0  0  0
    4.4917   -2.6042    0.0000 N   0  0  0  0  0  0  0  0  0  0  0  0
    6.6375   -2.1917    0.0000 C   0  0  0  0  0  0  0  0  0  0  0  0
    6.6375   -1.3667    0.0000 C   0  0  0  0  0  0  0  0  0  0  0  0
    5.9167   -0.1292    0.0000 Cl  0  0  0  0  0  0  0  0  0  0  0  0
  2  1  2  0
  3  2  1  0
  4  1  1  0
  5  2  1  0
  6  7  1  0
  7  4  2  0
  8  4  1  0
  3  6  2  0
M  END

> <chembl_id>
CHEMBL293728

> <chembl_pref_name>
None

$$$$

     RDKit          2D

 11 11  0  0  0  0  0  0  0  0999 V2000
    2.2667   -0.7250    0.0000 C   0  0  0  0  0  0  0  0  0  0  0  0
    1.5500   -0.3167    0.0000 C   0  0  0  0  0  0  0  0  0  0  0  0
    2.9750    0.5125    0.0000 O   0  0  0  0  0  0  0  0  0  0  0  0
    2.9792   -0.3125    0.0000 C   0  0  0  0  0  0  0  0  0  0  0  0
    0.8375   -0.7292    0.0000 C   0  0  0  0  0  0  0  0  0  0  0  0
    0.1167   -0.3167    0.0000 C   0  0  0  0  0  0  0  0  0  0  0  0
   -0.5958   -0.7375    0.0000 C   0  0  0  0  0  0  0  0  0  0  0  0
   -1.3125   -0.3167    0.0000 O   0  0  0  0  0  0  0  0  0  0  0  0
    0.1167   -1.9750    0.0000 C   0  0  0  0  0  0  0  0  0  0  0  0
    0.8375   -1.5625    0.0000 C   0  0  0  0  0  0  0  0  0  0  0  0
   -0.5958   -1.5625    0.0000 C   0  0  0  0  0  0  0  0  0  0  0  0
  2  1  2  0
  3  4  2  0
  4  1  1  0
  5  2  1  0
  6  5  2  0
  7  6  1  0
  8  7  1  0
  9 10  2  0
 10  5  1  0
 11  9  1  0
 11  7  2  0
M  END

> <chembl_id>
CHEMBL53932

> <chembl_pref_name>
None

$$$$

     RDKit          2D

  9  9  0  0  0  0  0  0  0  0999 V2000
   14.0665   -1.2880    0.0000 C   0  0  0  0  0  0  0  0  0  0  0  0
   14.8915   -1.2880    0.0000 N   0  0  0  0  0  0  0  0  0  0  0  0
   15.1465   -0.5034    0.0000 C   0  0  0  0  0  0  0  0  0  0  0  0
   14.4790   -0.0184    0.0000 S   0  0  0  0  0  0  0  0  0  0  0  0
   13.8116   -0.5034    0.0000 C   0  0  0  0  0  0  0  0  0  0  0  0
   13.0256   -0.2484    0.0000 N   0  0  0  0  0  0  0  0  0  0  0  0
   12.4126   -0.8004    0.0000 O   0  0  0  0  0  0  0  0  0  0  0  0
   12.8541    0.5586    0.0000 O   0  0  0  0  0  0  0  0  0  0  0  0
   15.9311   -0.2484    0.0000 N   0  0  0  0  0  0  0  0  0  0  0  0
  4  5  1  0
  5  1  2  0
  1  2  1  0
  2  3  2  0
  6  7  2  0
  6  8  1  0
  5  6  1  0
  3  4  1  0
  3  9  1  0
M  CHG  2   6   1   8  -1
M  END

> <chembl_id>
CHEMBL408049

> <chembl_pref_name>
None

$$$$

     RDKit          2D

  9  9  0  0  0  0  0  0  0  0999 V2000
    0.7933   -1.7885    0.0000 O   0  0  0  0  0  0  0  0  0  0  0  0
    2.2223    0.6865    0.0000 N   0  0  0  0  0  0  0  0  0  0  0  0
    1.5078   -1.3760    0.0000 C   0  0  0  0  0  0  0  0  0  0  0  0
    2.2223   -0.1385    0.0000 C   0  0  0  0  0  0  0  0  0  0  0  0
    1.5078   -0.5510    0.0000 C   0  0  0  0  0  0  0  0  0  0  0  0
    2.2223   -1.7885    0.0000 C   0  0  0  0  0  0  0  0  0  0  0  0
    2.9367   -0.5510    0.0000 C   0  0  0  0  0  0  0  0  0  0  0  0
    2.9367   -1.3760    0.0000 C   0  0  0  0  0  0  0  0  0  0  0  0
    0.7933   -2.6135    0.0000 C   0  0  0  0  0  0  0  0  0  0  0  0
  1  3  1  0
  1  9  1  0
  2  4  1  0
  3  5  1  0
  3  6  2  0
  4  5  2  0
  4  7  1  0
  6  8  1  0
  7  8  2  0
M  END

> <chembl_id>
CHEMBL1500995

> <chembl_pref_name>
None

$$$$

     RDKit          2D

 10 10  0  0  0  0  0  0  0  0999 V2000
    7.8111  -19.8791    0.0000 C   0  0  0  0  0  0  0  0  0  0  0  0
    7.8099  -20.7065    0.0000 C   0  0  0  0  0  0  0  0  0  0  0  0
    8.5247  -21.1194    0.0000 N   0  0  0  0  0  0  0  0  0  0  0  0
    9.2412  -20.7060    0.0000 C   0  0  0  0  0  0  0  0  0  0  0  0
    9.2383  -19.8755    0.0000 C   0  0  0  0  0  0  0  0  0  0  0  0
    8.5229  -19.4664    0.0000 C   0  0  0  0  0  0  0  0  0  0  0  0
    9.9297  -19.4253    0.0000 C   0  0  0  0  0  0  0  0  0  0  0  0
   10.6652  -19.7990    0.0000 C   0  0  0  0  0  0  0  0  0  0  0  0
   11.3566  -19.3489    0.0000 C   0  0  0  0  0  0  0  0  0  0  0  0
   12.0921  -19.7225    0.0000 N   0  0  0  0  0  0  0  0  0  0  0  0
  2  3  1  0
  5  6  2  0
  6  1  1  0
  1  2  2  0
  5  7  1  0
  3  4  2  0
  7  8  1  0
  8  9  1  0
  4  5  1  0
  9 10  1  0
M  END

> <chembl_id>
CHEMBL385023

> <chembl_pref_name>
None

$$$$

     RDKit          2D

 10 11  0  0  0  0  0  0  0  0999 V2000
    5.5542   -8.8917    0.0000 N   0  0  0  0  0  0  0  0  0  0  0  0
    6.0375   -9.5667    0.0000 C   0  0  0  0  0  0  0  0  0  0  0  0
    4.7667   -9.1500    0.0000 C   0  0  0  0  0  0  0  0  0  0  0  0
    4.7667   -9.9792    0.0000 C   0  0  0  0  0  0  0  0  0  0  0  0
    5.5542  -10.2292    0.0000 C   0  0  0  0  0  0  0  0  0  0  0  0
    6.8667   -9.5667    0.0000 O   0  0  0  0  0  0  0  0  0  0  0  0
    4.0542   -8.7375    0.0000 C   0  0  0  0  0  0  0  0  0  0  0  0
    4.0542  -10.3917    0.0000 C   0  0  0  0  0  0  0  0  0  0  0  0
    3.3417   -9.1500    0.0000 C   0  0  0  0  0  0  0  0  0  0  0  0
    3.3417   -9.9750    0.0000 C   0  0  0  0  0  0  0  0  0  0  0  0
  2  1  1  0
  3  1  1  0
  4  3  2  0
  5  2  1  0
  6  2  2  0
  7  3  1  0
  8  4  1  0
  9  7  2  0
 10  9  1  0
  5  4  1  0
 10  8  2  0
M  END

> <chembl_id>
CHEMBL40823

> <chembl_pref_name>
OXINDOLE

$$$$

     RDKit          2D

  9  9  0  0  0  0  0  0  0  0999 V2000
    6.9179  -13.0029    0.0000 C   0  0  0  0  0  0  0  0  0  0  0  0
    6.9179  -13.8285    0.0000 N   0  0  0  0  0  0  0  0  0  0  0  0
    7.6302  -14.2406    0.0000 C   0  0  0  0  0  0  0  0  0  0  0  0
    8.3452  -13.8281    0.0000 C   0  0  0  0  0  0  0  0  0  0  0  0
    8.3452  -12.9992    0.0000 C   0  0  0  0  0  0  0  0  0  0  0  0
    7.6284  -12.5909    0.0000 C   0  0  0  0  0  0  0  0  0  0  0  0
    9.0588  -14.2387    0.0000 C   0  0  0  0  0  0  0  0  0  0  0  0
    9.0588  -15.0619    0.0000 O   0  0  0  0  0  0  0  0  0  0  0  0
    6.2048  -12.5914    0.0000 Cl  0  0  0  0  0  0  0  0  0  0  0  0
  1  2  2  0
  2  3  1  0
  3  4  2  0
  4  5  1  0
  5  6  2  0
  6  1  1  0
  4  7  1  0
  7  8  2  0
  1  9  1  0
M  END

> <chembl_id>
CHEMBL2228157

> <chembl_pref_name>
6-CHLORONICOTINALDEHYDE

$$$$

     RDKit          2D

 10 10  0  0  0  0  0  0  0  0999 V2000
    6.2379   -2.4019    0.0000 N   0  0  0  0  0  0  0  0  0  0  0  0
    5.1983   -3.0012    0.0000 C   0  0  0  0  0  0  0  0  0  0  0  0
    3.8985   -2.2508    0.0000 C   0  0  0  0  0  0  0  0  0  0  0  0
    2.5988   -1.5004    0.0000 C   0  0  0  0  0  0  0  0  0  0  0  0
    1.2990   -0.7500    0.0000 C   0  0  0  0  0  0  0  0  0  0  0  0
    1.2990    0.7500    0.0000 C   0  0  0  0  0  0  0  0  0  0  0  0
    0.0000    1.5000    0.0000 C   0  0  0  0  0  0  0  0  0  0  0  0
   -1.2990    0.7500    0.0000 C   0  0  0  0  0  0  0  0  0  0  0  0
   -1.2990   -0.7500    0.0000 N   0  0  0  0  0  0  0  0  0  0  0  0
    0.0000   -1.5000    0.0000 C   0  0  0  0  0  0  0  0  0  0  0  0
  1  2  1  0
  2  3  1  0
  3  4  3  0
  4  5  1  0
  5  6  2  0
  6  7  1  0
  7  8  2  0
  8  9  1  0
  9 10  2  0
 10  5  1  0
M  END

> <chembl_id>
CHEMBL360541

> <chembl_pref_name>
None

$$$$

     RDKit          2D

 11 11  0  0  0  0  0  0  0  0999 V2000
    4.0917   -2.0250    0.0000 N   0  0  0  0  0  0  0  0  0  0  0  0
    3.5750   -1.7292    0.0000 C   0  0  0  0  0  0  0  0  0  0  0  0
    3.0542   -2.0292    0.0000 C   0  0  0  0  0  0  0  0  0  0  0  0
    4.3875   -2.5417    0.0000 C   0  0  0  0  0  0  0  0  0  0  0  0
    3.0542   -2.6292    0.0000 C   0  0  0  0  0  0  0  0  0  0  0  0
    2.5417   -1.7292    0.0000 C   0  0  0  0  0  0  0  0  0  0  0  0
    4.0792   -3.0542    0.0000 C   0  0  0  0  0  0  0  0  0  0  0  0
    4.3792   -3.5792    0.0000 C   0  0  0  0  0  0  0  0  0  0  0  0
    2.5417   -2.9292    0.0000 C   0  0  0  0  0  0  0  0  0  0  0  0
    2.0250   -2.0292    0.0000 C   0  0  0  0  0  0  0  0  0  0  0  0
    2.0250   -2.6292    0.0000 C   0  0  0  0  0  0  0  0  0  0  0  0
  2  1  1  0
  3  2  1  0
  4  1  1  0
  5  3  1  0
  6  3  2  0
  7  4  1  0
  8  7  1  0
  9  5  2  0
 10  6  1  0
 11  9  1  0
 10 11  2  0
M  END

> <chembl_id>
CHEMBL1182830

> <chembl_pref_name>
None

$$$$

     RDKit          2D

  9  9  0  0  0  0  0  0  0  0999 V2000
    6.8250   -7.1690    0.0000 C   0  0  0  0  0  0  0  0  0  0  0  0
    6.8239   -7.9885    0.0000 C   0  0  0  0  0  0  0  0  0  0  0  0
    7.5319   -8.3975    0.0000 C   0  0  0  0  0  0  0  0  0  0  0  0
    8.2416   -7.9880    0.0000 N   0  0  0  0  0  0  0  0  0  0  0  0
    8.2388   -7.1654    0.0000 C   0  0  0  0  0  0  0  0  0  0  0  0
    7.5301   -6.7601    0.0000 C   0  0  0  0  0  0  0  0  0  0  0  0
    7.5317   -9.2147    0.0000 S   0  0  0  0  0  0  0  0  0  0  0  0
    8.9499   -8.3955    0.0000 O   0  0  0  0  0  0  0  0  0  0  0  0
    8.9449   -6.7541    0.0000 C   0  0  0  0  0  0  0  0  0  0  0  0
  1  2  2  0
  2  3  1  0
  3  4  1  0
  4  5  1  0
  5  6  2  0
  6  1  1  0
  3  7  2  0
  4  8  1  0
  5  9  1  0
M  END

> <chembl_id>
CHEMBL3326432

> <chembl_pref_name>
None

$$$$

     RDKit          2D

 10 10  0  0  0  0  0  0  0  0999 V2000
   10.0355   -3.5956    0.0000 C   0  0  0  0  0  0  0  0  0  0  0  0
   10.0342   -4.4229    0.0000 C   0  0  0  0  0  0  0  0  0  0  0  0
   10.7491   -4.8358    0.0000 C   0  0  0  0  0  0  0  0  0  0  0  0
   11.4654   -4.4224    0.0000 C   0  0  0  0  0  0  0  0  0  0  0  0
   11.4626   -3.5920    0.0000 C   0  0  0  0  0  0  0  0  0  0  0  0
   10.7472   -3.1828    0.0000 C   0  0  0  0  0  0  0  0  0  0  0  0
   10.7489   -5.6607    0.0000 C   0  0  0  0  0  0  0  0  0  0  0  0
   10.0343   -6.0730    0.0000 N   0  0  0  0  0  0  0  0  0  0  0  0
   11.4632   -6.0733    0.0000 N   0  0  0  0  0  0  0  0  0  0  0  0
   12.1805   -4.8337    0.0000 C   0  0  0  0  0  0  0  0  0  0  0  0
  1  2  2  0
  2  3  1  0
  3  4  2  0
  4  5  1  0
  5  6  2  0
  6  1  1  0
  3  7  1  0
  7  8  2  0
  7  9  1  0
  4 10  1  0
M  END

> <chembl_id>
CHEMBL3247182

> <chembl_pref_name>
None

$$$$

     RDKit          2D

 10 10  0  0  0  0  0  0  0  0999 V2000
    4.9292   -6.0292    0.0000 N   0  0  0  0  0  0  0  0  0  0  0  0
    4.9292   -4.3792    0.0000 N   0  0  0  0  0  0  0  0  0  0  0  0
    4.2167   -5.6167    0.0000 C   0  0  0  0  0  0  0  0  0  0  0  0
    4.2167   -4.7917    0.0000 C   0  0  0  0  0  0  0  0  0  0  0  0
    5.6417   -5.6167    0.0000 C   0  0  0  0  0  0  0  0  0  0  0  0
    5.6417   -4.7917    0.0000 C   0  0  0  0  0  0  0  0  0  0  0  0
    3.5042   -6.0292    0.0000 C   0  0  0  0  0  0  0  0  0  0  0  0
    3.5042   -4.3792    0.0000 C   0  0  0  0  0  0  0  0  0  0  0  0
    6.3542   -6.0292    0.0000 C   0  0  0  0  0  0  0  0  0  0  0  0
    7.0667   -5.6167    0.0000 C   0  0  0  0  0  0  0  0  0  0  0  0
  2  6  2  0
  3  1  1  0
  4  3  2  0
  5  1  2  0
  6  5  1  0
  7  3  1  0
  8  4  1  0
  9  5  1  0
 10  9  1  0
  4  2  1  0
M  END

> <chembl_id>
CHEMBL94736

> <chembl_pref_name>
None

$$$$

     RDKit          2D

  9  9  0  0  0  0  0  0  0  0999 V2000
   -0.5558    2.1511    0.0000 C   0  0  0  0  0  0  0  0  0  0  0  0
   -0.5558    1.3261    0.0000 C   0  0  0  0  0  0  0  0  0  0  0  0
    0.1587    0.9136    0.0000 C   0  0  0  0  0  0  0  0  0  0  0  0
    0.1587    0.0886    0.0000 C   0  0  0  0  0  0  0  0  0  0  0  0
    0.8732   -0.3239    0.0000 C   0  0  0  0  0  0  0  0  0  0  0  0
    0.8732   -1.1489    0.0000 C   0  0  0  0  0  0  0  0  0  0  0  0
    0.1587   -1.5614    0.0000 C   0  0  0  0  0  0  0  0  0  0  0  0
   -0.5558   -1.1489    0.0000 C   0  0  0  0  0  0  0  0  0  0  0  0
   -0.5558   -0.3239    0.0000 C   0  0  0  0  0  0  0  0  0  0  0  0
  1  2  1  0
  2  3  1  0
  3  4  1  0
  4  5  2  0
  4  9  1  0
  5  6  1  0
  6  7  2  0
  7  8  1  0
  8  9  2  0
M  END

> <chembl_id>
CHEMBL286062

> <chembl_pref_name>
None

$$$$

     RDKit          2D

 10 10  0  0  0  0  0  0  0  0999 V2000
   14.4692   -6.1505    0.0000 C   0  0  0  0  0  0  0  0  0  0  0  0
   14.4681   -6.9774    0.0000 C   0  0  0  0  0  0  0  0  0  0  0  0
   15.1825   -7.3901    0.0000 C   0  0  0  0  0  0  0  0  0  0  0  0
   15.8985   -6.9769    0.0000 C   0  0  0  0  0  0  0  0  0  0  0  0
   15.8957   -6.1469    0.0000 C   0  0  0  0  0  0  0  0  0  0  0  0
   15.1807   -5.7380    0.0000 C   0  0  0  0  0  0  0  0  0  0  0  0
   15.1782   -4.9135    0.0000 C   0  0  0  0  0  0  0  0  0  0  0  0
   15.8911   -4.4991    0.0000 N   0  0  0  0  0  0  0  0  0  0  0  0
   15.8886   -3.6745    0.0000 C   0  0  0  0  0  0  0  0  0  0  0  0
   16.6063   -4.9092    0.0000 N   0  0  0  0  0  0  0  0  0  0  0  0
  2  3  1  0
  5  6  2  0
  6  1  1  0
  1  2  2  0
  6  7  1  0
  3  4  2  0
  7  8  1  0
  8  9  1  0
  4  5  1  0
  8 10  1  0
M  END

> <chembl_id>
CHEMBL1241379

> <chembl_pref_name>
None

$$$$

     RDKit          2D

 11 13  0  0  0  0  0  0  0  0999 V2000
    1.4292   -2.0250    0.0000 C   0  0  0  0  0  0  0  0  0  0  0  0
    1.9250   -1.3500    0.0000 C   0  0  0  0  0  0  0  0  0  0  0  0
    2.2750   -2.2792    0.0000 C   0  0  0  0  0  0  0  0  0  0  0  0
    0.6417   -1.7667    0.0000 C   0  0  0  0  0  0  0  0  0  0  0  0
    0.6417   -0.9375    0.0000 C   0  0  0  0  0  0  0  0  0  0  0  0
    1.4292   -0.6792    0.0000 C   0  0  0  0  0  0  0  0  0  0  0  0
   -0.0708   -2.1792    0.0000 C   0  0  0  0  0  0  0  0  0  0  0  0
   -0.0708   -0.5250    0.0000 C   0  0  0  0  0  0  0  0  0  0  0  0
   -0.7833   -1.7667    0.0000 C   0  0  0  0  0  0  0  0  0  0  0  0
   -0.7833   -0.9375    0.0000 C   0  0  0  0  0  0  0  0  0  0  0  0
   -1.4958   -2.1792    0.0000 O   0  0  0  0  0  0  0  0  0  0  0  0
  2  1  1  0
  3  1  1  0
  4  1  1  0
  5  4  1  0
  6  2  1  0
  7  4  2  0
  8  5  2  0
  9  7  1  0
 10  9  2  0
 11  9  1  0
  3  2  1  0
  5  6  1  0
 10  8  1  0
M  END

> <chembl_id>
CHEMBL368520

> <chembl_pref_name>
None

$$$$

     RDKit          2D

 10 10  0  0  0  0  0  0  0  0999 V2000
   -1.6598    1.5719    0.0000 O   0  0  0  0  0  0  0  0  0  0  0  0
   -2.9946    1.5719    0.0000 N   0  0  0  0  0  0  0  0  0  0  0  0
   -1.4298    0.1199    0.0000 N   0  0  0  0  0  0  0  0  0  0  0  0
   -3.7096   -0.5476    0.0000 N   0  0  0  0  0  0  0  0  0  0  0  0
   -2.7397    0.7873    0.0000 C   0  0  0  0  0  0  0  0  0  0  0  0
   -1.9147    0.7873    0.0000 C   0  0  0  0  0  0  0  0  0  0  0  0
   -2.3272    2.0568    0.0000 C   0  0  0  0  0  0  0  0  0  0  0  0
   -3.2246    0.1199    0.0000 C   0  0  0  0  0  0  0  0  0  0  0  0
   -2.3272    2.8818    0.0000 C   0  0  0  0  0  0  0  0  0  0  0  0
   -3.0417    3.2943    0.0000 C   0  0  0  0  0  0  0  0  0  0  0  0
  1  6  1  0
  1  7  1  0
  2  5  1  0
  2  7  2  0
  3  6  1  0
  4  8  3  0
  5  6  2  0
  5  8  1  0
  7  9  1  0
  9 10  2  0
M  END

> <chembl_id>
CHEMBL1994090

> <chembl_pref_name>
None

$$$$

     RDKit          2D

 10 11  0  0  0  0  0  0  0  0999 V2000
   13.8450   -1.8954    0.0000 N   0  0  0  0  0  0  0  0  0  0  0  0
   13.8450   -2.7238    0.0000 C   0  0  0  0  0  0  0  0  0  0  0  0
   14.5600   -3.1338    0.0000 N   0  0  0  0  0  0  0  0  0  0  0  0
   14.5600   -1.4769    0.0000 C   0  0  0  0  0  0  0  0  0  0  0  0
   15.2750   -1.8954    0.0000 C   0  0  0  0  0  0  0  0  0  0  0  0
   15.2750   -2.7203    0.0000 C   0  0  0  0  0  0  0  0  0  0  0  0
   16.0594   -2.9753    0.0000 N   0  0  0  0  0  0  0  0  0  0  0  0
   16.5444   -2.3079    0.0000 C   0  0  0  0  0  0  0  0  0  0  0  0
   16.0595   -1.6406    0.0000 N   0  0  0  0  0  0  0  0  0  0  0  0
   13.1281   -3.1390    0.0000 O   0  0  0  0  0  0  0  0  0  0  0  0
  5  6  2  0
  1  2  1  0
  1  4  1  0
  2  3  2  0
  3  6  1  0
  6  7  1  0
  7  8  1  0
  8  9  2  0
  9  5  1  0
  5  4  1  0
  2 10  1  0
M  END

> <chembl_id>
CHEMBL434384

> <chembl_pref_name>
None

$$$$

     RDKit          2D

  7  7  0  0  0  0  0  0  0  0999 V2000
    0.4373   -0.6095    0.0000 S   0  0  0  0  0  0  0  0  0  0  0  0
   -0.3877   -0.6095    0.0000 C   0  0  0  0  0  0  0  0  0  0  0  0
   -0.6426    0.1751    0.0000 N   0  0  0  0  0  0  0  0  0  0  0  0
    0.0248    0.6601    0.0000 C   0  0  0  0  0  0  0  0  0  0  0  0
    0.6922    0.1751    0.0000 C   0  0  0  0  0  0  0  0  0  0  0  0
   -0.8726   -1.2769    0.0000 N   0  0  0  0  0  0  0  0  0  0  0  0
    0.0248    1.4851    0.0000 C   0  0  0  0  0  0  0  0  0  0  0  0
  2  1  1  0
  5  1  1  0
  2  3  2  0
  2  6  1  0
  4  3  1  0
  4  5  2  0
  4  7  1  0
M  END

> <chembl_id>
CHEMBL505019

> <chembl_pref_name>
None

$$$$

     RDKit          2D

  9  9  0  0  0  0  0  0  0  0999 V2000
   17.0152  -13.0083    0.0000 C   0  0  0  0  0  0  0  0  0  0  0  0
   17.0141  -13.8357    0.0000 N   0  0  0  0  0  0  0  0  0  0  0  0
   17.7289  -14.2485    0.0000 C   0  0  0  0  0  0  0  0  0  0  0  0
   18.4453  -13.8352    0.0000 N   0  0  0  0  0  0  0  0  0  0  0  0
   18.4425  -13.0047    0.0000 C   0  0  0  0  0  0  0  0  0  0  0  0
   17.7271  -12.5955    0.0000 C   0  0  0  0  0  0  0  0  0  0  0  0
   16.3007  -12.5960    0.0000 O   0  0  0  0  0  0  0  0  0  0  0  0
   19.1554  -12.5895    0.0000 C   0  0  0  0  0  0  0  0  0  0  0  0
   17.7287  -15.0735    0.0000 O   0  0  0  0  0  0  0  0  0  0  0  0
  4  5  1  0
  2  3  1  0
  5  6  2  0
  6  1  1  0
  1  2  2  0
  3  9  1  0
  3  4  2  0
  1  7  1  0
  5  8  1  0
M  END

> <chembl_id>
CHEMBL1650614

> <chembl_pref_name>
None

$$$$

     RDKit          2D

  9  9  0  0  0  0  0  0  0  0999 V2000
    3.8875   -2.7625    0.0000 C   0  0  0  0  0  0  0  0  0  0  0  0
    3.1667   -3.1750    0.0000 O   0  0  0  0  0  0  0  0  0  0  0  0
    2.4542   -2.7625    0.0000 C   0  0  0  0  0  0  0  0  0  0  0  0
    3.1667   -1.5167    0.0000 C   0  0  0  0  0  0  0  0  0  0  0  0
    3.8875   -1.9292    0.0000 C   0  0  0  0  0  0  0  0  0  0  0  0
    2.4542   -1.9375    0.0000 C   0  0  0  0  0  0  0  0  0  0  0  0
    4.6042   -3.1750    0.0000 O   0  0  0  0  0  0  0  0  0  0  0  0
    1.7417   -3.1750    0.0000 C   0  0  0  0  0  0  0  0  0  0  0  0
    3.1667   -0.6917    0.0000 C   0  0  0  0  0  0  0  0  0  0  0  0
  2  1  1  0
  3  2  1  0
  4  5  2  0
  5  1  1  0
  6  4  1  0
  7  1  2  0
  8  3  1  0
  9  4  1  0
  6  3  2  0
M  END

> <chembl_id>
CHEMBL372284

> <chembl_pref_name>
None

$$$$

     RDKit          2D

 11 11  0  0  0  0  0  0  0  0999 V2000
   18.4636  -14.9987    0.0000 C   0  0  0  0  0  0  0  0  0  0  0  0
   18.4624  -15.8259    0.0000 C   0  0  0  0  0  0  0  0  0  0  0  0
   19.1772  -16.2388    0.0000 C   0  0  0  0  0  0  0  0  0  0  0  0
   19.8935  -15.8254    0.0000 C   0  0  0  0  0  0  0  0  0  0  0  0
   19.8907  -14.9950    0.0000 C   0  0  0  0  0  0  0  0  0  0  0  0
   19.1754  -14.5859    0.0000 C   0  0  0  0  0  0  0  0  0  0  0  0
   19.1770  -17.0637    0.0000 C   0  0  0  0  0  0  0  0  0  0  0  0
   18.4625  -17.4760    0.0000 N   0  0  0  0  0  0  0  0  0  0  0  0
   19.8913  -17.4763    0.0000 N   0  0  0  0  0  0  0  0  0  0  0  0
   20.6036  -14.5799    0.0000 C   0  0  0  0  0  0  0  0  0  0  0  0
   17.7491  -14.5863    0.0000 C   0  0  0  0  0  0  0  0  0  0  0  0
  1  2  2  0
  2  3  1  0
  3  4  2  0
  4  5  1  0
  5  6  2  0
  6  1  1  0
  3  7  1  0
  7  8  2  0
  7  9  1  0
  5 10  1  0
  1 11  1  0
M  END

> <chembl_id>
CHEMBL3247192

> <chembl_pref_name>
None

$$$$

     RDKit          2D

  9  9  0  0  0  0  0  0  0  0999 V2000
    9.8082   -8.9812    0.0000 O   0  0  0  0  0  0  0  0  0  0  0  0
    8.9832   -8.9812    0.0000 C   0  0  0  0  0  0  0  0  0  0  0  0
    8.6253   -9.7245    0.0000 C   0  0  0  0  0  0  0  0  0  0  0  0
    7.8210   -9.9081    0.0000 C   0  0  0  0  0  0  0  0  0  0  0  0
    7.1759   -9.3937    0.0000 C   0  0  0  0  0  0  0  0  0  0  0  0
    7.1759   -8.5687    0.0000 C   0  0  0  0  0  0  0  0  0  0  0  0
    7.8210   -8.0543    0.0000 C   0  0  0  0  0  0  0  0  0  0  0  0
    8.6253   -8.2379    0.0000 C   0  0  0  0  0  0  0  0  0  0  0  0
    9.1397   -7.5929    0.0000 N   0  0  0  0  0  0  0  0  0  0  0  0
  1  2  2  0
  2  3  1  0
  3  4  2  0
  4  5  1  0
  5  6  2  0
  6  7  1  0
  7  8  2  0
  2  8  1  0
  8  9  1  0
M  END

> <chembl_id>
CHEMBL3251332

> <chembl_pref_name>
None

$$$$

     RDKit          2D

  8  8  0  0  0  0  0  0  0  0999 V2000
    4.1032  -15.8590    0.0000 C   0  0  0  0  0  0  0  0  0  0  0  0
    4.8129  -16.2647    0.0000 N   0  0  0  0  0  0  0  0  0  0  0  0
    4.1006  -15.0416    0.0000 S   0  0  0  0  0  0  0  0  0  0  0  0
    3.3971  -16.2702    0.0000 C   0  0  0  0  0  0  0  0  0  0  0  0
    2.6227  -15.9966    0.0000 C   0  0  0  0  0  0  0  0  0  0  0  0
    2.1251  -16.6448    0.0000 C   0  0  0  0  0  0  0  0  0  0  0  0
    2.5879  -17.3184    0.0000 C   0  0  0  0  0  0  0  0  0  0  0  0
    3.3714  -17.0864    0.0000 O   0  0  0  0  0  0  0  0  0  0  0  0
  1  2  1  0
  1  3  2  0
  1  4  1  0
  4  5  2  0
  5  6  1  0
  6  7  2  0
  7  8  1  0
  8  4  1  0
M  END

> <chembl_id>
CHEMBL2441349

> <chembl_pref_name>
None

$$$$

     RDKit          2D

 11 11  0  0  0  0  0  0  0  0999 V2000
    1.1270   -4.4625    0.0000 N   0  0  0  0  0  0  0  0  0  0  0  0
    1.8414   -0.7500    0.0000 N   0  0  0  0  0  0  0  0  0  0  0  0
    1.1270   -2.8125    0.0000 C   0  0  0  0  0  0  0  0  0  0  0  0
    1.1270   -1.9875    0.0000 C   0  0  0  0  0  0  0  0  0  0  0  0
    0.4125   -3.2250    0.0000 C   0  0  0  0  0  0  0  0  0  0  0  0
    1.8414   -3.2250    0.0000 C   0  0  0  0  0  0  0  0  0  0  0  0
    0.4125   -4.0500    0.0000 C   0  0  0  0  0  0  0  0  0  0  0  0
    1.8414   -1.5750    0.0000 C   0  0  0  0  0  0  0  0  0  0  0  0
    1.8414   -4.0500    0.0000 C   0  0  0  0  0  0  0  0  0  0  0  0
    1.1270   -0.3375    0.0000 C   0  0  0  0  0  0  0  0  0  0  0  0
    2.5559   -0.3375    0.0000 C   0  0  0  0  0  0  0  0  0  0  0  0
  1  7  2  0
  1  9  1  0
  2  8  1  0
  2 10  1  0
  2 11  1  0
  3  4  1  0
  3  5  2  0
  3  6  1  0
  4  8  2  0
  5  7  1  0
  6  9  2  0
M  END

> <chembl_id>
CHEMBL1988161

> <chembl_pref_name>
None

$$$$

     RDKit          2D

 10 10  0  0  0  0  0  0  0  0999 V2000
    3.6917    1.3125    0.0000 N   0  0  0  0  0  0  0  0  0  0  0  0
    2.8667    1.3083    0.0000 C   0  0  0  0  0  0  0  0  0  0  0  0
    4.1042    0.6000    0.0000 O   0  0  0  0  0  0  0  0  0  0  0  0
    4.1042    2.0333    0.0000 O   0  0  0  0  0  0  0  0  0  0  0  0
    2.4542    2.0208    0.0000 C   0  0  0  0  0  0  0  0  0  0  0  0
    2.4542    0.5958    0.0000 C   0  0  0  0  0  0  0  0  0  0  0  0
    1.6250    2.0208    0.0000 C   0  0  0  0  0  0  0  0  0  0  0  0
    1.6250    0.5958    0.0000 C   0  0  0  0  0  0  0  0  0  0  0  0
    1.2125    1.3083    0.0000 C   0  0  0  0  0  0  0  0  0  0  0  0
    0.3875    1.3083    0.0000 C   0  0  0  0  0  0  0  0  0  0  0  0
  2  1  1  0
  3  1  1  0
  4  1  2  0
  5  2  1  0
  6  2  2  0
  7  5  2  0
  8  6  1  0
  9  8  2  0
 10  9  1  0
  9  7  1  0
M  CHG  2   1   1   3  -1
M  END

> <chembl_id>
CHEMBL155320

> <chembl_pref_name>
4-NITROTOLUENE

$$$$

     RDKit          2D

 10 10  0  0  0  0  0  0  0  0999 V2000
    9.2380  -25.0617    0.0000 C   0  0  0  0  0  0  0  0  0  0  0  0
    9.2368  -25.8886    0.0000 C   0  0  0  0  0  0  0  0  0  0  0  0
    9.9512  -26.3012    0.0000 C   0  0  0  0  0  0  0  0  0  0  0  0
   10.6671  -25.8881    0.0000 C   0  0  0  0  0  0  0  0  0  0  0  0
   10.6642  -25.0581    0.0000 C   0  0  0  0  0  0  0  0  0  0  0  0
    9.9494  -24.6493    0.0000 C   0  0  0  0  0  0  0  0  0  0  0  0
   11.3767  -24.6432    0.0000 O   0  0  0  0  0  0  0  0  0  0  0  0
   12.0922  -25.0527    0.0000 C   0  0  0  0  0  0  0  0  0  0  0  0
   12.8046  -24.6378    0.0000 C   0  0  0  0  0  0  0  0  0  0  0  0
   13.5201  -25.0473    0.0000 N   0  0  0  0  0  0  0  0  0  0  0  0
  2  3  1  0
  5  6  2  0
  6  1  1  0
  1  2  2  0
  5  7  1  0
  3  4  2  0
  7  8  1  0
  8  9  1  0
  4  5  1  0
  9 10  1  0
M  END

> <chembl_id>
CHEMBL217680

> <chembl_pref_name>
None

$$$$

     RDKit          2D

  8  8  0  0  0  0  0  0  0  0999 V2000
    0.7173    1.8612    0.0000 Cl  0  0  0  0  0  0  0  0  0  0  0  0
   -0.7116    4.3362    0.0000 O   0  0  0  0  0  0  0  0  0  0  0  0
    0.0029    3.0987    0.0000 N   0  0  0  0  0  0  0  0  0  0  0  0
    0.0029    2.2737    0.0000 C   0  0  0  0  0  0  0  0  0  0  0  0
   -0.7116    3.5112    0.0000 C   0  0  0  0  0  0  0  0  0  0  0  0
   -0.7116    1.8612    0.0000 C   0  0  0  0  0  0  0  0  0  0  0  0
   -1.4261    3.0987    0.0000 C   0  0  0  0  0  0  0  0  0  0  0  0
   -1.4261    2.2737    0.0000 C   0  0  0  0  0  0  0  0  0  0  0  0
  1  4  1  0
  2  5  2  0
  3  4  1  0
  3  5  1  0
  4  6  2  0
  5  7  1  0
  6  8  1  0
  7  8  2  0
M  END

> <chembl_id>
CHEMBL1978468

> <chembl_pref_name>
None

$$$$

     RDKit          2D

  8  8  0  0  0  0  0  0  0  0999 V2000
   14.0903   -6.9584    0.0000 C   0  0  0  0  0  0  0  0  0  0  0  0
   14.0891   -7.7852    0.0000 C   0  0  0  0  0  0  0  0  0  0  0  0
   14.8035   -8.1979    0.0000 C   0  0  0  0  0  0  0  0  0  0  0  0
   15.5196   -7.7848    0.0000 C   0  0  0  0  0  0  0  0  0  0  0  0
   15.5167   -6.9547    0.0000 C   0  0  0  0  0  0  0  0  0  0  0  0
   14.8017   -6.5459    0.0000 C   0  0  0  0  0  0  0  0  0  0  0  0
   14.7993   -5.7213    0.0000 N   0  0  0  0  0  0  0  0  0  0  0  0
   14.8033   -9.0224    0.0000 F   0  0  0  0  0  0  0  0  0  0  0  0
  4  5  1  0
  2  3  1  0
  5  6  2  0
  6  1  1  0
  1  2  2  0
  6  7  1  0
  3  4  2  0
  3  8  1  0
M  END

> <chembl_id>
CHEMBL32014

> <chembl_pref_name>
None

$$$$

     RDKit          2D

  9  9  0  0  0  0  0  0  0  0999 V2000
   -5.0067  -12.5631    0.0000 C   0  0  0  0  0  0  0  0  0  0  0  0
   -5.0078  -13.3899    0.0000 C   0  0  0  0  0  0  0  0  0  0  0  0
   -4.2934  -13.8024    0.0000 C   0  0  0  0  0  0  0  0  0  0  0  0
   -3.5775  -13.3894    0.0000 C   0  0  0  0  0  0  0  0  0  0  0  0
   -3.5803  -12.5595    0.0000 C   0  0  0  0  0  0  0  0  0  0  0  0
   -4.2952  -12.1505    0.0000 C   0  0  0  0  0  0  0  0  0  0  0  0
   -2.8678  -12.1445    0.0000 C   0  0  0  0  0  0  0  0  0  0  0  0
   -2.8709  -11.3200    0.0000 O   0  0  0  0  0  0  0  0  0  0  0  0
   -5.7208  -12.1510    0.0000 O   0  0  0  0  0  0  0  0  0  0  0  0
  4  5  1  0
  2  3  1  0
  5  6  2  0
  6  1  1  0
  1  2  2  0
  5  7  1  0
  3  4  2  0
  7  8  2  0
  1  9  1  0
M  END

> <chembl_id>
CHEMBL243816

> <chembl_pref_name>
3-HYDROXYBENZALDEHYDE

$$$$

     RDKit          2D

 10 10  0  0  0  0  0  0  0  0999 V2000
    3.8042   -0.2167    0.0000 C   0  0  0  0  0  0  0  0  0  0  0  0
    3.0917    0.1958    0.0000 C   0  0  0  0  0  0  0  0  0  0  0  0
    2.3750   -0.2167    0.0000 N   0  0  0  0  0  0  0  0  0  0  0  0
    3.8125   -1.0417    0.0000 O   0  0  0  0  0  0  0  0  0  0  0  0
    4.5250    0.1958    0.0000 O   0  0  0  0  0  0  0  0  0  0  0  0
    1.6625    0.1958    0.0000 C   0  0  0  0  0  0  0  0  0  0  0  0
    3.0917    1.0208    0.0000 C   0  0  0  0  0  0  0  0  0  0  0  0
    5.2375   -0.2167    0.0000 C   0  0  0  0  0  0  0  0  0  0  0  0
    1.6625    1.0208    0.0000 C   0  0  0  0  0  0  0  0  0  0  0  0
    2.3750    1.4333    0.0000 C   0  0  0  0  0  0  0  0  0  0  0  0
  2  1  1  0
  3  2  2  0
  4  1  2  0
  5  1  1  0
  6  3  1  0
  7  2  1  0
  8  5  1  0
  9 10  1  0
 10  7  2  0
  6  9  2  0
M  END

> <chembl_id>
CHEMBL309354

> <chembl_pref_name>
None

$$$$

     RDKit          2D

  7  7  0  0  0  0  0  0  0  0999 V2000
   -0.0147   -1.0607    0.0000 N   0  0  0  0  0  0  0  0  0  0  0  0
   -0.7292   -0.6482    0.0000 C   0  0  0  0  0  0  0  0  0  0  0  0
   -0.7292    0.1768    0.0000 C   0  0  0  0  0  0  0  0  0  0  0  0
   -0.0147    0.5893    0.0000 C   0  0  0  0  0  0  0  0  0  0  0  0
    0.6998    0.1768    0.0000 C   0  0  0  0  0  0  0  0  0  0  0  0
    0.6998   -0.6482    0.0000 C   0  0  0  0  0  0  0  0  0  0  0  0
   -0.0147    1.4143    0.0000 N   0  0  0  0  0  0  0  0  0  0  0  0
  2  1  1  0
  6  1  2  0
  2  3  2  0
  3  4  1  0
  4  5  2  0
  4  7  1  0
  5  6  1  0
M  END

> <chembl_id>
CHEMBL284348

> <chembl_pref_name>
DALFAMPRIDINE

$$$$

     RDKit          2D

  9  9  0  0  0  0  0  0  0  0999 V2000
   -0.3389    0.0918    0.0000 C   0  0  0  0  0  0  0  0  0  0  0  0
    0.3756    0.5043    0.0000 C   0  0  0  0  0  0  0  0  0  0  0  0
    1.0900    0.0918    0.0000 C   0  0  0  0  0  0  0  0  0  0  0  0
    1.0900   -0.7332    0.0000 C   0  0  0  0  0  0  0  0  0  0  0  0
   -0.3389   -0.7332    0.0000 C   0  0  0  0  0  0  0  0  0  0  0  0
    0.3756   -1.1457    0.0000 C   0  0  0  0  0  0  0  0  0  0  0  0
    0.3756    1.3293    0.0000 N   0  0  0  0  0  0  0  0  0  0  0  0
   -1.0534    0.5043    0.0000 C   0  0  0  0  0  0  0  0  0  0  0  0
   -1.7679    0.0918    0.0000 O   0  0  0  0  0  0  0  0  0  0  0  0
  2  1  2  0
  1  5  1  0
  8  1  1  0
  3  2  1  0
  2  7  1  0
  4  3  2  0
  4  6  1  0
  5  6  2  0
  8  9  1  0
M  END

> <chembl_id>
CHEMBL1235999

> <chembl_pref_name>
ISATOIC ANHYDRIDE

$$$$

     RDKit          2D

  9  9  0  0  0  0  0  0  0  0999 V2000
    2.0036   -0.4355    0.0000 O   0  0  0  0  0  0  0  0  0  0  0  0
    3.6562   -0.9230    0.0000 N   0  0  0  0  0  0  0  0  0  0  0  0
    4.7362   -0.1384    0.0000 N   0  0  0  0  0  0  0  0  0  0  0  0
    4.0687    1.1715    0.0000 N   0  0  0  0  0  0  0  0  0  0  0  0
    2.4451    0.9235    0.0000 N   0  0  0  0  0  0  0  0  0  0  0  0
    3.4013   -0.1384    0.0000 C   0  0  0  0  0  0  0  0  0  0  0  0
    4.0687    0.3465    0.0000 C   0  0  0  0  0  0  0  0  0  0  0  0
    2.6167    0.1166    0.0000 C   0  0  0  0  0  0  0  0  0  0  0  0
    4.4812   -0.9230    0.0000 C   0  0  0  0  0  0  0  0  0  0  0  0
  1  8  2  0
  2  6  1  0
  2  9  1  0
  3  7  1  0
  3  9  2  0
  4  7  1  0
  5  8  1  0
  6  7  2  0
  6  8  1  0
M  END

> <chembl_id>
CHEMBL1610

> <chembl_pref_name>
None

$$$$

     RDKit          2D

 10 10  0  0  0  0  0  0  0  0999 V2000
    5.7792   -4.9500    0.0000 C   0  0  0  0  0  0  0  0  0  0  0  0
    5.7792   -4.1250    0.0000 O   0  0  0  0  0  0  0  0  0  0  0  0
    5.0667   -5.3625    0.0000 C   0  0  0  0  0  0  0  0  0  0  0  0
    6.4917   -5.3625    0.0000 N   0  0  0  0  0  0  0  0  0  0  0  0
    4.3542   -4.9500    0.0000 C   0  0  0  0  0  0  0  0  0  0  0  0
    5.0667   -6.1875    0.0000 C   0  0  0  0  0  0  0  0  0  0  0  0
    6.4917   -6.1875    0.0000 C   0  0  0  0  0  0  0  0  0  0  0  0
    4.3542   -6.6000    0.0000 C   0  0  0  0  0  0  0  0  0  0  0  0
    3.6417   -5.3625    0.0000 C   0  0  0  0  0  0  0  0  0  0  0  0
    3.6417   -6.1875    0.0000 C   0  0  0  0  0  0  0  0  0  0  0  0
  2  1  2  0
  3  1  1  0
  4  1  1  0
  5  3  2  0
  6  3  1  0
  7  4  1  0
  8  6  2  0
  9  5  1  0
 10  8  1  0
  9 10  2  0
M  END

> <chembl_id>
CHEMBL275261

> <chembl_pref_name>
None

$$$$

     RDKit          2D

  9  9  0  0  0  0  0  0  0  0999 V2000
    1.2990   -0.7500    0.0000 C   0  0  0  0  0  0  0  0  0  0  0  0
    1.2990    0.7500    0.0000 C   0  0  0  0  0  0  0  0  0  0  0  0
    0.0000    1.5000    0.0000 C   0  0  0  0  0  0  0  0  0  0  0  0
   -1.2990    0.7500    0.0000 C   0  0  0  0  0  0  0  0  0  0  0  0
   -1.2990   -0.7500    0.0000 C   0  0  0  0  0  0  0  0  0  0  0  0
    0.0000   -1.5000    0.0000 C   0  0  0  0  0  0  0  0  0  0  0  0
    2.5973   -1.5031    0.0000 C   0  0  0  0  0  0  0  0  0  0  0  0
    3.6375   -0.9049    0.0000 N   0  0  0  0  0  0  0  0  0  0  0  0
    2.5956   -2.7031    0.0000 S   0  0  0  0  0  0  0  0  0  0  0  0
  1  2  2  0
  2  3  1  0
  3  4  2  0
  4  5  1  0
  5  6  2  0
  6  1  1  0
  1  7  1  0
  7  8  1  0
  7  9  2  0
M  END

> <chembl_id>
CHEMBL3739883

> <chembl_pref_name>
None

$$$$

     RDKit          2D

  9  9  0  0  0  0  0  0  0  0999 V2000
    1.7191   -4.5887    0.0000 N   0  0  0  0  0  0  0  0  0  0  0  0
    1.0157   -3.6164    0.0000 C   0  0  0  0  0  0  0  0  0  0  0  0
    1.6281   -2.2462    0.0000 C   0  0  0  0  0  0  0  0  0  0  0  0
    0.7500   -1.0323    0.0000 C   0  0  0  0  0  0  0  0  0  0  0  0
    1.2135    0.3943    0.0000 C   0  0  0  0  0  0  0  0  0  0  0  0
    0.0000    1.2760    0.0000 N   0  0  0  0  0  0  0  0  0  0  0  0
   -1.2135    0.3943    0.0000 C   0  0  0  0  0  0  0  0  0  0  0  0
   -0.7500   -1.0323    0.0000 N   0  0  0  0  0  0  0  0  0  0  0  0
    0.0000    2.4760    0.0000 C   0  0  0  0  0  0  0  0  0  0  0  0
  1  2  1  0
  2  3  1  0
  3  4  1  0
  4  5  2  0
  5  6  1  0
  6  7  1  0
  7  8  2  0
  4  8  1  0
  6  9  1  0
M  END

> <chembl_id>
CHEMBL507

> <chembl_pref_name>
N-METHYLHISTAMINE

$$$$

     RDKit          2D

  9  9  0  0  0  0  0  0  0  0999 V2000
   16.2517    0.5822    0.0000 C   0  0  0  0  0  0  0  0  0  0  0  0
   16.9624    0.9941    0.0000 C   0  0  0  0  0  0  0  0  0  0  0  0
   17.6773    0.5822    0.0000 C   0  0  0  0  0  0  0  0  0  0  0  0
   16.2517   -0.2417    0.0000 O   0  0  0  0  0  0  0  0  0  0  0  0
   15.5368    0.9941    0.0000 C   0  0  0  0  0  0  0  0  0  0  0  0
   14.7835    0.6612    0.0000 C   0  0  0  0  0  0  0  0  0  0  0  0
   14.2311    1.2726    0.0000 C   0  0  0  0  0  0  0  0  0  0  0  0
   14.6431    1.9874    0.0000 C   0  0  0  0  0  0  0  0  0  0  0  0
   15.4521    1.8153    0.0000 S   0  0  0  0  0  0  0  0  0  0  0  0
  1  2  1  0
  2  3  2  0
  1  4  1  0
  5  6  2  0
  6  7  1  0
  7  8  2  0
  8  9  1  0
  5  9  1  0
  1  5  1  0
M  END

> <chembl_id>
CHEMBL406959

> <chembl_pref_name>
None

$$$$

     RDKit          2D

  6  6  0  0  0  0  0  0  0  0999 V2000
   -0.0088    0.4472    0.0000 C   0  0  0  0  0  0  0  0  0  0  0  0
    0.6586   -0.0377    0.0000 C   0  0  0  0  0  0  0  0  0  0  0  0
   -0.6763   -0.0377    0.0000 C   0  0  0  0  0  0  0  0  0  0  0  0
   -0.0088    1.2722    0.0000 C   0  0  0  0  0  0  0  0  0  0  0  0
    0.4037   -0.8223    0.0000 C   0  0  0  0  0  0  0  0  0  0  0  0
   -0.4213   -0.8223    0.0000 N   0  0  0  0  0  0  0  0  0  0  0  0
  1  2  1  0
  1  3  2  0
  1  4  1  0
  2  5  2  0
  3  6  1  0
  5  6  1  0
M  END

> <chembl_id>
CHEMBL426643

> <chembl_pref_name>
None

$$$$

     RDKit          2D

  6  6  0  0  0  0  0  0  0  0999 V2000
    0.7145    0.4107    0.0000 C   0  0  0  0  0  0  0  0  0  0  0  0
    0.7145   -0.4143    0.0000 C   0  0  0  0  0  0  0  0  0  0  0  0
   -0.0000   -0.8268    0.0000 N   0  0  0  0  0  0  0  0  0  0  0  0
    0.0000    0.8232    0.0000 C   0  0  0  0  0  0  0  0  0  0  0  0
   -0.7145    0.4107    0.0000 N   0  0  0  0  0  0  0  0  0  0  0  0
   -0.7145   -0.4143    0.0000 C   0  0  0  0  0  0  0  0  0  0  0  0
  1  2  1  0
  4  1  2  0
  2  3  2  0
  6  3  1  0
  4  5  1  0
  6  5  2  0
M  END

> <chembl_id>
CHEMBL15562

> <chembl_pref_name>
PYRIMIDINE

$$$$

     RDKit          2D

  9 10  0  0  0  0  0  0  0  0999 V2000
    6.0417   -2.9292    0.0000 N   0  0  0  0  0  0  0  0  0  0  0  0
    4.7750   -2.5167    0.0000 C   0  0  0  0  0  0  0  0  0  0  0  0
    4.7750   -3.3417    0.0000 C   0  0  0  0  0  0  0  0  0  0  0  0
    5.5542   -3.5917    0.0000 C   0  0  0  0  0  0  0  0  0  0  0  0
    5.5542   -2.2625    0.0000 C   0  0  0  0  0  0  0  0  0  0  0  0
    4.0625   -3.7542    0.0000 C   0  0  0  0  0  0  0  0  0  0  0  0
    4.0625   -2.1042    0.0000 C   0  0  0  0  0  0  0  0  0  0  0  0
    3.3417   -2.5167    0.0000 C   0  0  0  0  0  0  0  0  0  0  0  0
    3.3417   -3.3417    0.0000 C   0  0  0  0  0  0  0  0  0  0  0  0
  2  5  1  0
  3  4  1  0
  4  1  1  0
  5  1  1  0
  6  3  2  0
  7  2  2  0
  8  7  1  0
  9  6  1  0
  3  2  1  0
  8  9  2  0
M  END

> <chembl_id>
CHEMBL118475

> <chembl_pref_name>
None

$$$$

     RDKit          2D

  8  8  0  0  0  0  0  0  0  0999 V2000
   15.1307  -14.8094    0.0000 N   0  0  0  0  0  0  0  0  0  0  0  0
   15.8031  -14.3314    0.0000 C   0  0  0  0  0  0  0  0  0  0  0  0
   15.5581  -13.5435    0.0000 N   0  0  0  0  0  0  0  0  0  0  0  0
   14.7306  -13.5346    0.0000 C   0  0  0  0  0  0  0  0  0  0  0  0
   14.4706  -14.3166    0.0000 C   0  0  0  0  0  0  0  0  0  0  0  0
   14.2510  -12.8626    0.0000 C   0  0  0  0  0  0  0  0  0  0  0  0
   14.5932  -12.1120    0.0000 O   0  0  0  0  0  0  0  0  0  0  0  0
   13.4298  -12.9416    0.0000 O   0  0  0  0  0  0  0  0  0  0  0  0
  3  4  1  0
  4  5  2  0
  5  1  1  0
  1  2  1  0
  2  3  2  0
  6  7  1  0
  6  8  2  0
  4  6  1  0
M  END

> <chembl_id>
CHEMBL1773943

> <chembl_pref_name>
4-IMIDAZOLECARBOXYLIC ACID

$$$$

     RDKit          2D

  8  8  0  0  0  0  0  0  0  0999 V2000
    3.3001   -0.7161    0.0000 N   0  0  0  0  0  0  0  0  0  0  0  0
    2.4750   -0.7161    0.0000 C   0  0  0  0  0  0  0  0  0  0  0  0
    0.8250   -0.7161    0.0000 C   0  0  0  0  0  0  0  0  0  0  0  0
    2.0625    0.0000    0.0000 C   0  0  0  0  0  0  0  0  0  0  0  0
    2.0625   -1.4289    0.0000 C   0  0  0  0  0  0  0  0  0  0  0  0
    1.2375    0.0000    0.0000 C   0  0  0  0  0  0  0  0  0  0  0  0
    1.2375   -1.4289    0.0000 C   0  0  0  0  0  0  0  0  0  0  0  0
    0.0000   -0.7161    0.0000 C   0  0  0  0  0  0  0  0  0  0  0  0
  1  2  1  0
  2  4  2  0
  2  5  1  0
  3  6  2  0
  3  7  1  0
  3  8  1  0
  4  6  1  0
  5  7  2  0
M  END

> <chembl_id>
CHEMBL58521

> <chembl_pref_name>
None

$$$$

     RDKit          2D

 10 10  0  0  0  0  0  0  0  0999 V2000
   22.7907  -19.5310    0.0000 C   0  0  0  0  0  0  0  0  0  0  0  0
   22.7896  -20.3582    0.0000 C   0  0  0  0  0  0  0  0  0  0  0  0
   23.5039  -20.7710    0.0000 N   0  0  0  0  0  0  0  0  0  0  0  0
   24.2197  -20.3577    0.0000 C   0  0  0  0  0  0  0  0  0  0  0  0
   24.2171  -19.5276    0.0000 C   0  0  0  0  0  0  0  0  0  0  0  0
   23.5022  -19.1182    0.0000 C   0  0  0  0  0  0  0  0  0  0  0  0
   24.9348  -20.7691    0.0000 C   0  0  0  0  0  0  0  0  0  0  0  0
   25.6486  -20.3554    0.0000 C   0  0  0  0  0  0  0  0  0  0  0  0
   26.3665  -20.7639    0.0000 O   0  0  0  0  0  0  0  0  0  0  0  0
   25.6501  -19.5277    0.0000 O   0  0  0  0  0  0  0  0  0  0  0  0
  2  3  1  0
  5  6  2  0
  6  1  1  0
  1  2  2  0
  4  7  1  0
  3  4  2  0
  7  8  1  0
  4  5  1  0
  8  9  1  0
  8 10  2  0
M  END

> <chembl_id>
CHEMBL1801660

> <chembl_pref_name>
None

$$$$

     RDKit          2D

 10 10  0  0  0  0  0  0  0  0999 V2000
    1.3285    1.5253    0.0000 O   0  0  0  0  0  0  0  0  0  0  0  0
    1.3285    0.7003    0.0000 N   0  0  0  0  0  0  0  0  0  0  0  0
    0.6140   -2.1872    0.0000 N   0  0  0  0  0  0  0  0  0  0  0  0
   -0.1004    0.7003    0.0000 N   0  0  0  0  0  0  0  0  0  0  0  0
    0.6140   -0.5372    0.0000 C   0  0  0  0  0  0  0  0  0  0  0  0
    0.6140    0.2878    0.0000 C   0  0  0  0  0  0  0  0  0  0  0  0
   -0.1004   -0.9497    0.0000 C   0  0  0  0  0  0  0  0  0  0  0  0
    1.3285   -0.9497    0.0000 C   0  0  0  0  0  0  0  0  0  0  0  0
   -0.1004   -1.7747    0.0000 C   0  0  0  0  0  0  0  0  0  0  0  0
    1.3285   -1.7747    0.0000 C   0  0  0  0  0  0  0  0  0  0  0  0
  2  1  1  0
  2  6  2  3
  3  9  2  0
  3 10  1  0
  4  6  1  0
  5  6  1  0
  5  7  2  0
  5  8  1  0
  7  9  1  0
  8 10  2  0
M  END

> <chembl_id>
CHEMBL1896408

> <chembl_pref_name>
None

$$$$

     RDKit          2D

 10 10  0  0  0  0  0  0  0  0999 V2000
    2.5792   -0.1042    0.0000 C   0  0  0  0  0  0  0  0  0  0  0  0
    3.3042    0.3208    0.0000 C   0  0  0  0  0  0  0  0  0  0  0  0
    1.8667    0.3083    0.0000 C   0  0  0  0  0  0  0  0  0  0  0  0
    3.2917    1.1500    0.0000 O   0  0  0  0  0  0  0  0  0  0  0  0
    4.0292   -0.0875    0.0000 N   0  0  0  0  0  0  0  0  0  0  0  0
    1.8667    1.1333    0.0000 F   0  0  0  0  0  0  0  0  0  0  0  0
    2.5792   -0.9292    0.0000 C   0  0  0  0  0  0  0  0  0  0  0  0
    1.1542   -0.1042    0.0000 C   0  0  0  0  0  0  0  0  0  0  0  0
    1.8667   -1.3417    0.0000 C   0  0  0  0  0  0  0  0  0  0  0  0
    1.1542   -0.9292    0.0000 C   0  0  0  0  0  0  0  0  0  0  0  0
  2  1  1  0
  3  1  1  0
  4  2  2  0
  5  2  1  0
  6  3  1  0
  7  1  2  0
  8  3  2  0
  9  7  1  0
 10  9  2  0
  8 10  1  0
M  END

> <chembl_id>
CHEMBL121910

> <chembl_pref_name>
None

$$$$

     RDKit          2D

 10 10  0  0  0  0  0  0  0  0999 V2000
   13.7150   -1.9327    0.0000 C   0  0  0  0  0  0  0  0  0  0  0  0
   13.7138   -2.7598    0.0000 C   0  0  0  0  0  0  0  0  0  0  0  0
   14.4284   -3.1725    0.0000 N   0  0  0  0  0  0  0  0  0  0  0  0
   15.1446   -2.7593    0.0000 C   0  0  0  0  0  0  0  0  0  0  0  0
   15.1417   -1.9291    0.0000 C   0  0  0  0  0  0  0  0  0  0  0  0
   14.4266   -1.5200    0.0000 C   0  0  0  0  0  0  0  0  0  0  0  0
   15.8560   -1.5137    0.0000 C   0  0  0  0  0  0  0  0  0  0  0  0
   16.5717   -1.9234    0.0000 O   0  0  0  0  0  0  0  0  0  0  0  0
   15.8529   -0.6890    0.0000 O   0  0  0  0  0  0  0  0  0  0  0  0
   13.0006   -1.5205    0.0000 C   0  0  0  0  0  0  0  0  0  0  0  0
  2  3  1  0
  5  6  2  0
  6  1  1  0
  1  2  2  0
  3  4  2  0
  7  8  1  0
  7  9  2  0
  5  7  1  0
  4  5  1  0
  1 10  1  0
M  END

> <chembl_id>
CHEMBL247132

> <chembl_pref_name>
None

$$$$

     RDKit          2D

  8  8  0  0  0  0  0  0  0  0999 V2000
    0.1750   -0.9042    0.0000 C   0  0  0  0  0  0  0  0  0  0  0  0
   -0.9833   -0.0917    0.0000 S   0  0  0  0  0  0  0  0  0  0  0  0
   -0.2500   -2.3000    0.0000 N   0  0  0  0  0  0  0  0  0  0  0  0
   -1.6958   -2.3000    0.0000 N   0  0  0  0  0  0  0  0  0  0  0  0
    1.7667    1.0000    0.0000 C   0  0  0  0  0  0  0  0  0  0  0  0
    1.5417   -0.4042    0.0000 N   0  0  0  0  0  0  0  0  0  0  0  0
    2.0042    2.4000    0.0000 N   0  0  0  0  0  0  0  0  0  0  0  0
   -2.1208   -0.9042    0.0000 C   0  0  0  0  0  0  0  0  0  0  0  0
  2  1  1  0
  3  1  2  0
  4  3  1  0
  5  6  1  0
  6  1  1  0
  7  5  3  0
  8  2  1  0
  4  8  2  0
M  END

> <chembl_id>
CHEMBL2104066

> <chembl_pref_name>
AMITIVIR

$$$$

     RDKit          2D

 11 11  0  0  0  0  0  0  0  0999 V2000
    1.4282    0.0000    0.0000 N   0  0  0  0  0  0  0  0  0  0  0  0
    1.4282   -0.8250    0.0000 C   0  0  0  0  0  0  0  0  0  0  0  0
    2.1308   -1.2404    0.0000 C   0  0  0  0  0  0  0  0  0  0  0  0
    0.7141   -1.2404    0.0000 C   0  0  0  0  0  0  0  0  0  0  0  0
    2.1308   -2.0626    0.0000 C   0  0  0  0  0  0  0  0  0  0  0  0
    0.7141   -2.0626    0.0000 C   0  0  0  0  0  0  0  0  0  0  0  0
    1.4282   -2.4694    0.0000 C   0  0  0  0  0  0  0  0  0  0  0  0
    2.8450   -0.8250    0.0000 C   0  0  0  0  0  0  0  0  0  0  0  0
    0.0000   -0.8250    0.0000 C   0  0  0  0  0  0  0  0  0  0  0  0
    2.8450    0.0000    0.0000 C   0  0  0  0  0  0  0  0  0  0  0  0
    0.0000    0.0000    0.0000 C   0  0  0  0  0  0  0  0  0  0  0  0
  1  2  1  0
  2  3  2  0
  2  4  1  0
  3  5  1  0
  3  8  1  0
  4  6  2  0
  4  9  1  0
  5  7  2  0
  6  7  1  0
  8 10  1  0
  9 11  1  0
M  END

> <chembl_id>
CHEMBL3184218

> <chembl_pref_name>
None

$$$$

     RDKit          2D

 10 10  0  0  0  0  0  0  0  0999 V2000
    9.7409  -13.2301    0.0000 N   0  0  0  0  0  0  0  0  0  0  0  0
   10.4500  -12.8182    0.0000 C   0  0  0  0  0  0  0  0  0  0  0  0
    9.7399  -14.0579    0.0000 C   0  0  0  0  0  0  0  0  0  0  0  0
    9.0233  -12.8206    0.0000 C   0  0  0  0  0  0  0  0  0  0  0  0
    9.0238  -11.9929    0.0000 C   0  0  0  0  0  0  0  0  0  0  0  0
    9.7372  -11.5772    0.0000 C   0  0  0  0  0  0  0  0  0  0  0  0
   10.4491  -11.9894    0.0000 C   0  0  0  0  0  0  0  0  0  0  0  0
   11.1646  -13.2290    0.0000 C   0  0  0  0  0  0  0  0  0  0  0  0
   11.1661  -14.0533    0.0000 C   0  0  0  0  0  0  0  0  0  0  0  0
   11.1712  -14.8765    0.0000 N   0  0  0  0  0  0  0  0  0  0  0  0
  1  2  2  0
  1  3  1  0
  1  4  1  0
  4  5  2  0
  5  6  1  0
  6  7  2  0
  7  2  1  0
  2  8  1  0
  8  9  1  0
  9 10  3  0
M  CHG  1   1   1
M  END

> <chembl_id>
CHEMBL3306760

> <chembl_pref_name>
None

$$$$

     RDKit          2D

  9 10  0  0  1  0  0  0  0  0999 V2000
    6.5000   -5.8417    0.0000 C   0  0  0  0  0  0  0  0  0  0  0  0
    7.0500   -5.2292    0.0000 C   0  0  0  0  0  0  0  0  0  0  0  0
    7.3000   -6.0167    0.0000 C   0  0  0  0  0  0  0  0  0  0  0  0
    5.7125   -6.1042    0.0000 C   0  0  0  0  0  0  0  0  0  0  0  0
    5.0417   -5.6167    0.0000 N   0  0  0  0  0  0  0  0  0  0  0  0
    4.6292   -6.8917    0.0000 N   0  0  0  0  0  0  0  0  0  0  0  0
    4.3792   -6.1042    0.0000 C   0  0  0  0  0  0  0  0  0  0  0  0
    5.4542   -6.8917    0.0000 C   0  0  0  0  0  0  0  0  0  0  0  0
    7.9125   -6.5667    0.0000 N   0  0  0  0  0  0  0  0  0  0  0  0
  2  1  1  0
  3  1  1  0
  1  4  1  1
  5  4  1  0
  6  8  1  0
  7  5  2  0
  8  4  2  0
  3  9  1  1
  3  2  1  0
  7  6  1  0
M  END

> <chembl_id>
CHEMBL59389

> <chembl_pref_name>
None

$$$$

     RDKit          2D

 10 10  0  0  0  0  0  0  0  0999 V2000
    1.2990   -0.7500    0.0000 C   0  0  0  0  0  0  0  0  0  0  0  0
    1.2990    0.7500    0.0000 C   0  0  0  0  0  0  0  0  0  0  0  0
   -1.2990    0.7500    0.0000 N   0  0  0  0  0  0  0  0  0  0  0  0
    2.5972    1.5031    0.0000 N   0  0  0  0  0  0  0  0  0  0  0  0
    2.5956   -2.7031    0.0000 N   0  0  0  0  0  0  0  0  0  0  0  0
    0.0000    1.5000    0.0000 C   0  0  0  0  0  0  0  0  0  0  0  0
    2.5973   -1.5031    0.0000 C   0  0  0  0  0  0  0  0  0  0  0  0
    0.0000   -1.5000    0.0000 C   0  0  0  0  0  0  0  0  0  0  0  0
   -1.2990   -0.7500    0.0000 C   0  0  0  0  0  0  0  0  0  0  0  0
    2.5955    2.7031    0.0000 C   0  0  0  0  0  0  0  0  0  0  0  0
  1  2  2  0
  2  4  1  0
  2  6  1  0
  3  6  2  0
  1  7  1  0
  5  7  1  0
  1  8  1  0
  3  9  1  0
  8  9  2  0
  4 10  1  0
M  END

> <chembl_id>
CHEMBL1188029

> <chembl_pref_name>
None

$$$$

     RDKit          2D

  5  5  0  0  0  0  0  0  0  0999 V2000
    3.9000   -0.9542    0.0000 N   0  0  0  0  0  0  0  0  0  0  0  0
    3.6500   -0.1667    0.0000 C   0  0  0  0  0  0  0  0  0  0  0  0
    4.3167    0.3083    0.0000 S   0  0  0  0  0  0  0  0  0  0  0  0
    4.7167   -0.9542    0.0000 C   0  0  0  0  0  0  0  0  0  0  0  0
    4.9750   -0.1792    0.0000 C   0  0  0  0  0  0  0  0  0  0  0  0
  2  1  2  0
  3  2  1  0
  4  1  1  0
  5  4  2  0
  5  3  1  0
M  END

> <chembl_id>
CHEMBL15605

> <chembl_pref_name>
HYDROCHLORTHIAZIDE

$$$$

     RDKit          2D

  8  8  0  0  0  0  0  0  0  0999 V2000
    6.1936  -14.3875    0.0000 C   0  0  0  0  0  0  0  0  0  0  0  0
    6.1924  -15.2070    0.0000 N   0  0  0  0  0  0  0  0  0  0  0  0
    6.9005  -15.6160    0.0000 C   0  0  0  0  0  0  0  0  0  0  0  0
    7.6101  -15.2065    0.0000 C   0  0  0  0  0  0  0  0  0  0  0  0
    7.6073  -14.3839    0.0000 C   0  0  0  0  0  0  0  0  0  0  0  0
    6.8987  -13.9786    0.0000 C   0  0  0  0  0  0  0  0  0  0  0  0
    8.3134  -13.9726    0.0000 C   0  0  0  0  0  0  0  0  0  0  0  0
    8.3104  -13.1554    0.0000 O   0  0  0  0  0  0  0  0  0  0  0  0
  1  2  2  0
  2  3  1  0
  3  4  2  0
  4  5  1  0
  5  6  2  0
  6  1  1  0
  5  7  1  0
  7  8  2  0
M  END

> <chembl_id>
CHEMBL2251606

> <chembl_pref_name>
4-FORMYLPYRIDINE

$$$$

     RDKit          2D

  9  9  0  0  0  0  0  0  0  0999 V2000
   -0.5973  -22.1500    0.0000 N   0  0  0  0  0  0  0  0  0  0  0  0
   -0.5984  -22.9773    0.0000 C   0  0  0  0  0  0  0  0  0  0  0  0
    0.1164  -23.3902    0.0000 C   0  0  0  0  0  0  0  0  0  0  0  0
    0.8328  -22.9769    0.0000 C   0  0  0  0  0  0  0  0  0  0  0  0
    0.8300  -22.1463    0.0000 C   0  0  0  0  0  0  0  0  0  0  0  0
    0.1146  -21.7372    0.0000 C   0  0  0  0  0  0  0  0  0  0  0  0
    0.1121  -20.9122    0.0000 C   0  0  0  0  0  0  0  0  0  0  0  0
    1.5480  -23.3882    0.0000 C   0  0  0  0  0  0  0  0  0  0  0  0
   -1.3132  -23.3893    0.0000 C   0  0  0  0  0  0  0  0  0  0  0  0
  4  5  1  0
  2  3  1  0
  5  6  2  0
  6  1  1  0
  1  2  2  0
  6  7  1  0
  3  4  2  0
  4  8  1  0
  2  9  1  0
M  END

> <chembl_id>
CHEMBL1209580

> <chembl_pref_name>
None

$$$$

     RDKit          2D

  8  8  0  0  0  0  0  0  0  0999 V2000
    8.9310   -7.3770    0.0000 N   0  0  0  0  0  0  0  0  0  0  0  0
    9.7411   -7.5170    0.0000 N   0  0  0  0  0  0  0  0  0  0  0  0
   10.1239   -6.7986    0.0000 C   0  0  0  0  0  0  0  0  0  0  0  0
    9.5497   -6.1980    0.0000 O   0  0  0  0  0  0  0  0  0  0  0  0
    8.8087   -6.5637    0.0000 C   0  0  0  0  0  0  0  0  0  0  0  0
    8.0950   -6.1489    0.0000 C   0  0  0  0  0  0  0  0  0  0  0  0
    7.3797   -6.5590    0.0000 N   0  0  0  0  0  0  0  0  0  0  0  0
   10.9408   -6.6863    0.0000 S   0  0  0  0  0  0  0  0  0  0  0  0
  4  5  1  0
  5  1  2  0
  1  2  1  0
  5  6  1  0
  6  7  1  0
  3  8  1  0
  2  3  2  0
  3  4  1  0
M  END

> <chembl_id>
CHEMBL1187559

> <chembl_pref_name>
None

$$$$

     RDKit          2D

  8  7  0  0  0  0  0  0  0  0999 V2000
    0.0792    1.7708    0.0000 Na  0  0  0  0  0 15  0  0  0  0  0  0
   -2.0583   -0.9000    0.0000 O   0  0  0  0  0  0  0  0  0  0  0  0
   -0.6208   -0.9000    0.0000 C   0  0  0  0  0  0  0  0  0  0  0  0
    0.0792   -2.1500    0.0000 C   0  0  0  0  0  0  0  0  0  0  0  0
    0.0792    0.3250    0.0000 C   0  0  0  0  0  0  0  0  0  0  0  0
    1.5292    0.3250    0.0000 C   0  0  0  0  0  0  0  0  0  0  0  0
    1.5292   -2.1500    0.0000 C   0  0  0  0  0  0  0  0  0  0  0  0
    2.2375   -0.9000    0.0000 C   0  0  0  0  0  0  0  0  0  0  0  0
  3  2  1  0
  4  3  2  0
  5  3  1  0
  6  5  2  0
  7  4  1  0
  8  7  2  0
  6  8  1  0
M  CHG  2   1   1   2  -1
M  END

> <chembl_id>
CHEMBL2107497

> <chembl_pref_name>
PHENOLATE SODIUM

$$$$

     RDKit          2D

  8  8  0  0  0  0  0  0  0  0999 V2000
    3.6913    0.3930    0.0000 N   0  0  0  0  0  0  0  0  0  0  0  0
    3.2788   -0.8766    0.0000 N   0  0  0  0  0  0  0  0  0  0  0  0
    4.1038   -0.8766    0.0000 N   0  0  0  0  0  0  0  0  0  0  0  0
    3.6913    1.2180    0.0000 N   0  0  0  0  0  0  0  0  0  0  0  0
    2.2393    0.1630    0.0000 N   0  0  0  0  0  0  0  0  0  0  0  0
    5.1434    0.1630    0.0000 N   0  0  0  0  0  0  0  0  0  0  0  0
    4.3588   -0.0919    0.0000 C   0  0  0  0  0  0  0  0  0  0  0  0
    3.0239   -0.0919    0.0000 C   0  0  0  0  0  0  0  0  0  0  0  0
  1  4  1  0
  1  7  1  0
  1  8  1  0
  2  3  1  0
  2  8  2  0
  3  7  2  0
  5  8  1  0
  6  7  1  0
M  END

> <chembl_id>
CHEMBL2010372

> <chembl_pref_name>
None

$$$$

     RDKit          2D

 11 12  0  0  0  0  0  0  0  0999 V2000
   -2.1166   -1.0764    0.0000 N   0  0  0  0  0  0  0  0  0  0  0  0
   -1.2502   -1.5758    0.0000 C   0  0  0  0  0  0  0  0  0  0  0  0
   -0.3846   -1.0752    0.0000 C   0  0  0  0  0  0  0  0  0  0  0  0
   -0.3854   -0.0752    0.0000 C   0  0  0  0  0  0  0  0  0  0  0  0
    0.4802    0.4256    0.0000 C   0  0  0  0  0  0  0  0  0  0  0  0
    1.3466   -0.0738    0.0000 C   0  0  0  0  0  0  0  0  0  0  0  0
    1.3474   -1.0738    0.0000 C   0  0  0  0  0  0  0  0  0  0  0  0
    0.4818   -1.5744    0.0000 C   0  0  0  0  0  0  0  0  0  0  0  0
    2.2986   -1.3820    0.0000 C   0  0  0  0  0  0  0  0  0  0  0  0
    2.8858   -0.5724    0.0000 N   0  0  0  0  0  0  0  0  0  0  0  0
    2.2972    0.2360    0.0000 C   0  0  0  0  0  0  0  0  0  0  0  0
  1  2  1  0
  2  3  1  0
  3  4  2  0
  4  5  1  0
  5  6  2  0
  6  7  1  0
  7  8  2  0
  7  9  1  0
  9 10  1  0
 10 11  1  0
  8  3  1  0
 11  6  1  0
M  END

> <chembl_id>
CHEMBL4581288

> <chembl_pref_name>
None

$$$$

     RDKit          2D

 11 12  0  0  0  0  0  0  0  0999 V2000
    5.1000   -0.5417    0.0000 C   0  0  0  0  0  0  0  0  0  0  0  0
    6.5292   -1.3667    0.0000 N   0  0  0  0  0  0  0  0  0  0  0  0
    5.1042   -1.3667    0.0000 C   0  0  0  0  0  0  0  0  0  0  0  0
    5.8125   -0.1250    0.0000 C   0  0  0  0  0  0  0  0  0  0  0  0
    5.8167   -1.7792    0.0000 C   0  0  0  0  0  0  0  0  0  0  0  0
    6.5292   -0.5375    0.0000 C   0  0  0  0  0  0  0  0  0  0  0  0
    4.3917   -0.1292    0.0000 C   0  0  0  0  0  0  0  0  0  0  0  0
    4.3917   -1.7792    0.0000 C   0  0  0  0  0  0  0  0  0  0  0  0
    5.8042    0.7000    0.0000 C   0  0  0  0  0  0  0  0  0  0  0  0
    3.6750   -0.5417    0.0000 C   0  0  0  0  0  0  0  0  0  0  0  0
    3.6750   -1.3667    0.0000 C   0  0  0  0  0  0  0  0  0  0  0  0
  2  6  1  0
  3  1  2  0
  4  1  1  0
  5  3  1  0
  6  4  1  0
  7  1  1  0
  8  3  1  0
  9  4  1  0
 10  7  2  0
 11 10  1  0
  5  2  1  0
  8 11  2  0
M  END

> <chembl_id>
CHEMBL138793

> <chembl_pref_name>
None

$$$$

     RDKit          2D

 10 11  0  0  0  0  0  0  0  0999 V2000
    0.9868    1.6324    0.0000 N   0  0  0  0  0  0  0  0  0  0  0  0
    0.6770    0.6818    0.0000 C   0  0  0  0  0  0  0  0  0  0  0  0
    1.2642   -0.1278    0.0000 C   0  0  0  0  0  0  0  0  0  0  0  0
    0.6758   -0.9362    0.0000 O   0  0  0  0  0  0  0  0  0  0  0  0
   -0.2750   -0.6266    0.0000 C   0  0  0  0  0  0  0  0  0  0  0  0
   -1.1414   -1.1258    0.0000 C   0  0  0  0  0  0  0  0  0  0  0  0
   -2.0070   -0.6252    0.0000 C   0  0  0  0  0  0  0  0  0  0  0  0
   -2.0062    0.3748    0.0000 C   0  0  0  0  0  0  0  0  0  0  0  0
   -1.1398    0.8742    0.0000 C   0  0  0  0  0  0  0  0  0  0  0  0
   -0.2742    0.3734    0.0000 C   0  0  0  0  0  0  0  0  0  0  0  0
  1  2  1  0
  2  3  1  0
  3  4  1  0
  4  5  1  0
  5  6  2  0
  6  7  1  0
  7  8  2  0
  8  9  1  0
  9 10  2  0
 10  2  1  0
 10  5  1  0
M  END

> <chembl_id>
CHEMBL4586207

> <chembl_pref_name>
None

$$$$

     RDKit          2D

  8  8  0  0  0  0  0  0  0  0999 V2000
    3.6465  -25.0269    0.0000 C   0  0  0  0  0  0  0  0  0  0  0  0
    3.6453  -25.8538    0.0000 C   0  0  0  0  0  0  0  0  0  0  0  0
    4.3596  -26.2665    0.0000 C   0  0  0  0  0  0  0  0  0  0  0  0
    5.0757  -25.8533    0.0000 C   0  0  0  0  0  0  0  0  0  0  0  0
    5.0728  -25.0233    0.0000 C   0  0  0  0  0  0  0  0  0  0  0  0
    4.3578  -24.6144    0.0000 C   0  0  0  0  0  0  0  0  0  0  0  0
    4.3554  -23.7899    0.0000 O   0  0  0  0  0  0  0  0  0  0  0  0
    5.7853  -24.6083    0.0000 C   0  0  0  0  0  0  0  0  0  0  0  0
  4  5  1  0
  5  6  2  0
  6  1  1  0
  2  3  1  0
  6  7  1  0
  5  8  1  0
  3  4  2  0
  1  2  2  0
M  END

> <chembl_id>
CHEMBL46931

> <chembl_pref_name>
ORTHOCRESOL

$$$$

     RDKit          2D

  9  9  0  0  0  0  0  0  0  0999 V2000
   12.9729  -24.6495    0.0000 C   0  0  0  0  0  0  0  0  0  0  0  0
   12.9717  -25.4763    0.0000 C   0  0  0  0  0  0  0  0  0  0  0  0
   13.6861  -25.8890    0.0000 C   0  0  0  0  0  0  0  0  0  0  0  0
   14.4020  -25.4758    0.0000 C   0  0  0  0  0  0  0  0  0  0  0  0
   14.3991  -24.6459    0.0000 C   0  0  0  0  0  0  0  0  0  0  0  0
   13.6843  -24.2371    0.0000 C   0  0  0  0  0  0  0  0  0  0  0  0
   13.6818  -23.4127    0.0000 O   0  0  0  0  0  0  0  0  0  0  0  0
   15.1116  -24.2310    0.0000 O   0  0  0  0  0  0  0  0  0  0  0  0
   15.8271  -24.6405    0.0000 C   0  0  0  0  0  0  0  0  0  0  0  0
  5  6  2  0
  6  1  1  0
  2  3  1  0
  6  7  1  0
  5  8  1  0
  3  4  2  0
  8  9  1  0
  1  2  2  0
  4  5  1  0
M  END

> <chembl_id>
CHEMBL13766

> <chembl_pref_name>
GUAIACOL

$$$$

     RDKit          2D

  7  7  0  0  0  0  0  0  0  0999 V2000
   14.2770  -10.5417    0.0000 C   0  0  0  0  0  0  0  0  0  0  0  0
   15.1020  -10.5417    0.0000 C   0  0  0  0  0  0  0  0  0  0  0  0
   15.3570   -9.7571    0.0000 N   0  0  0  0  0  0  0  0  0  0  0  0
   14.6895   -9.2721    0.0000 O   0  0  0  0  0  0  0  0  0  0  0  0
   14.0221   -9.7571    0.0000 C   0  0  0  0  0  0  0  0  0  0  0  0
   15.5870  -11.2091    0.0000 O   0  0  0  0  0  0  0  0  0  0  0  0
   13.2375   -9.5021    0.0000 C   0  0  0  0  0  0  0  0  0  0  0  0
  2  3  2  0
  3  4  1  0
  4  5  1  0
  5  1  2  0
  1  2  1  0
  2  6  1  0
  5  7  1  0
M  END

> <chembl_id>
CHEMBL244877

> <chembl_pref_name>
HYMEXAZOL

$$$$

     RDKit          2D

  9  9  0  0  0  0  0  0  0  0999 V2000
   20.1276    1.0897    0.0000 C   0  0  0  0  0  0  0  0  0  0  0  0
   20.1276    0.2646    0.0000 C   0  0  0  0  0  0  0  0  0  0  0  0
   20.8394   -0.1440    0.0000 N   0  0  0  0  0  0  0  0  0  0  0  0
   21.5511    0.2646    0.0000 C   0  0  0  0  0  0  0  0  0  0  0  0
   21.5511    1.0897    0.0000 N   0  0  0  0  0  0  0  0  0  0  0  0
   20.8394    1.5061    0.0000 C   0  0  0  0  0  0  0  0  0  0  0  0
   22.2651   -0.1488    0.0000 N   0  0  0  0  0  0  0  0  0  0  0  0
   20.8394    2.3311    0.0000 S   0  0  0  0  0  0  0  0  0  0  0  0
   19.4136   -0.1488    0.0000 N   0  0  0  0  0  0  0  0  0  0  0  0
  2  3  1  0
  3  4  2  0
  4  5  1  0
  5  6  2  0
  4  7  1  0
  1  2  2  0
  6  8  1  0
  1  6  1  0
  2  9  1  0
M  END

> <chembl_id>
CHEMBL1688954

> <chembl_pref_name>
None

$$$$

     RDKit          2D

 10 11  0  0  1  0  0  0  0  0999 V2000
    5.0501   -0.8419    0.0000 N   0  0  0  0  0  0  0  0  0  0  0  0
    4.0197   -1.4569    0.0000 C   0  0  0  0  0  0  0  0  0  0  0  0
    3.2676   -2.7548    0.0000 C   0  0  0  0  0  0  0  0  0  0  0  0
    2.5987   -1.5004    0.0000 C   0  0  0  0  0  0  0  0  0  0  0  0
    1.2990   -0.7500    0.0000 C   0  0  0  0  0  0  0  0  0  0  0  0
    1.2990    0.7500    0.0000 C   0  0  0  0  0  0  0  0  0  0  0  0
    0.0000    1.5000    0.0000 C   0  0  0  0  0  0  0  0  0  0  0  0
   -1.2990    0.7500    0.0000 C   0  0  0  0  0  0  0  0  0  0  0  0
   -1.2990   -0.7500    0.0000 C   0  0  0  0  0  0  0  0  0  0  0  0
    0.0000   -1.5000    0.0000 C   0  0  0  0  0  0  0  0  0  0  0  0
  2  1  1  6
  2  3  1  0
  3  4  1  0
  4  2  1  0
  4  5  1  1
  5  6  2  0
  6  7  1  0
  7  8  2  0
  8  9  1  0
  9 10  2  0
 10  5  1  0
M  END

> <chembl_id>
CHEMBL1179

> <chembl_pref_name>
None

$$$$

     RDKit          2D

  9  9  0  0  0  0  0  0  0  0999 V2000
   -0.0958   -3.4042    0.0000 C   0  0  0  0  0  0  0  0  0  0  0  0
   -0.6125   -3.1042    0.0000 C   0  0  0  0  0  0  0  0  0  0  0  0
   -0.6208   -2.5042    0.0000 F   0  0  0  0  0  0  0  0  0  0  0  0
    0.9417   -3.3917    0.0000 N   0  0  0  0  0  0  0  0  0  0  0  0
    0.4250   -3.1000    0.0000 C   0  0  0  0  0  0  0  0  0  0  0  0
   -0.0958   -4.0042    0.0000 C   0  0  0  0  0  0  0  0  0  0  0  0
   -1.1333   -3.4042    0.0000 C   0  0  0  0  0  0  0  0  0  0  0  0
   -0.6125   -4.3042    0.0000 C   0  0  0  0  0  0  0  0  0  0  0  0
   -1.1333   -4.0042    0.0000 C   0  0  0  0  0  0  0  0  0  0  0  0
  2  1  2  0
  3  2  1  0
  4  5  1  0
  5  1  1  0
  6  1  1  0
  7  2  1  0
  8  6  2  0
  9  8  1  0
  7  9  2  0
M  END

> <chembl_id>
CHEMBL12892

> <chembl_pref_name>
None

$$$$

     RDKit          2D

 10 10  0  0  0  0  0  0  0  0999 V2000
   33.0173   -1.7957    0.0000 C   0  0  0  0  0  0  0  0  0  0  0  0
   33.0161   -2.6230    0.0000 C   0  0  0  0  0  0  0  0  0  0  0  0
   33.7310   -3.0358    0.0000 N   0  0  0  0  0  0  0  0  0  0  0  0
   34.4473   -2.6226    0.0000 C   0  0  0  0  0  0  0  0  0  0  0  0
   34.4445   -1.7920    0.0000 C   0  0  0  0  0  0  0  0  0  0  0  0
   33.7291   -1.3829    0.0000 C   0  0  0  0  0  0  0  0  0  0  0  0
   35.1574   -1.3768    0.0000 C   0  0  0  0  0  0  0  0  0  0  0  0
   35.8733   -1.7867    0.0000 C   0  0  0  0  0  0  0  0  0  0  0  0
   36.5862   -1.3715    0.0000 C   0  0  0  0  0  0  0  0  0  0  0  0
   35.1542   -0.5520    0.0000 C   0  0  0  0  0  0  0  0  0  0  0  0
  1  2  2  0
  2  3  1  0
  3  4  2  0
  4  5  1  0
  5  6  2  0
  6  1  1  0
  5  7  1  0
  7  8  2  3
  8  9  1  0
  7 10  1  0
M  END

> <chembl_id>
CHEMBL2289660

> <chembl_pref_name>
None

$$$$

     RDKit          2D

 11 12  0  0  0  0  0  0  0  0999 V2000
    4.2160   -0.3375    0.0000 N   0  0  0  0  0  0  0  0  0  0  0  0
    4.2160    0.4875    0.0000 C   0  0  0  0  0  0  0  0  0  0  0  0
    4.9304   -0.7500    0.0000 C   0  0  0  0  0  0  0  0  0  0  0  0
    4.9304    0.9000    0.0000 C   0  0  0  0  0  0  0  0  0  0  0  0
    5.6449    0.4875    0.0000 C   0  0  0  0  0  0  0  0  0  0  0  0
    3.4314   -0.5924    0.0000 C   0  0  0  0  0  0  0  0  0  0  0  0
    3.4314    0.7424    0.0000 C   0  0  0  0  0  0  0  0  0  0  0  0
    5.6449   -0.3375    0.0000 C   0  0  0  0  0  0  0  0  0  0  0  0
    2.9464    0.0750    0.0000 C   0  0  0  0  0  0  0  0  0  0  0  0
    4.9304   -1.5750    0.0000 C   0  0  0  0  0  0  0  0  0  0  0  0
    6.3594    0.9000    0.0000 C   0  0  0  0  0  0  0  0  0  0  0  0
  1  2  2  0
  1  3  1  0
  1  6  1  0
  2  4  1  0
  2  7  1  0
  3  8  2  0
  3 10  1  0
  4  5  2  0
  5  8  1  0
  5 11  1  0
  6  9  1  0
  7  9  2  0
M  CHG  1   1   1
M  END

> <chembl_id>
CHEMBL2010319

> <chembl_pref_name>
None

$$$$

     RDKit          2D

  7  7  0  0  0  0  0  0  0  0999 V2000
    0.7917   -0.9292    0.0000 N   0  0  0  0  0  0  0  0  0  0  0  0
    1.5125   -1.3417    0.0000 C   0  0  0  0  0  0  0  0  0  0  0  0
    0.0792   -1.3500    0.0000 C   0  0  0  0  0  0  0  0  0  0  0  0
    2.2250   -0.9292    0.0000 C   0  0  0  0  0  0  0  0  0  0  0  0
    1.5125   -2.1750    0.0000 C   0  0  0  0  0  0  0  0  0  0  0  0
    0.0792   -2.1750    0.0000 C   0  0  0  0  0  0  0  0  0  0  0  0
    0.7917   -2.5875    0.0000 C   0  0  0  0  0  0  0  0  0  0  0  0
  2  1  2  0
  3  1  1  0
  4  2  1  0
  5  2  1  0
  6  3  2  0
  7  6  1  0
  7  5  2  0
M  END

> <chembl_id>
CHEMBL15732

> <chembl_pref_name>
None

$$$$

     RDKit          2D

  9  9  0  0  0  0  0  0  0  0999 V2000
    2.8359   -1.4208    0.0000 O   0  0  0  0  0  0  0  0  0  0  0  0
    2.8359    1.8792    0.0000 N   0  0  0  0  0  0  0  0  0  0  0  0
    2.8359   -0.5958    0.0000 C   0  0  0  0  0  0  0  0  0  0  0  0
    2.8359    1.0542    0.0000 C   0  0  0  0  0  0  0  0  0  0  0  0
    2.1214   -0.1833    0.0000 C   0  0  0  0  0  0  0  0  0  0  0  0
    3.5504   -0.1833    0.0000 C   0  0  0  0  0  0  0  0  0  0  0  0
    2.1214    0.6417    0.0000 C   0  0  0  0  0  0  0  0  0  0  0  0
    3.5504    0.6417    0.0000 C   0  0  0  0  0  0  0  0  0  0  0  0
    3.5504   -1.8333    0.0000 C   0  0  0  0  0  0  0  0  0  0  0  0
  1  3  1  0
  1  9  1  0
  2  4  1  0
  3  5  2  0
  3  6  1  0
  4  7  2  0
  4  8  1  0
  5  7  1  0
  6  8  2  0
M  END

> <chembl_id>
CHEMBL295652

> <chembl_pref_name>
None

$$$$
 
     RDKit          2D

  9  9  0  0  0  0  0  0  0  0999 V2000
   32.9834  -20.1161    0.0000 C   0  0  0  0  0  0  0  0  0  0  0  0
   32.9822  -20.9356    0.0000 C   0  0  0  0  0  0  0  0  0  0  0  0
   33.6903  -21.3446    0.0000 C   0  0  0  0  0  0  0  0  0  0  0  0
   34.4000  -20.9351    0.0000 C   0  0  0  0  0  0  0  0  0  0  0  0
   34.3971  -20.1125    0.0000 C   0  0  0  0  0  0  0  0  0  0  0  0
   33.6885  -19.7072    0.0000 C   0  0  0  0  0  0  0  0  0  0  0  0
   35.1033  -19.7012    0.0000 C   0  0  0  0  0  0  0  0  0  0  0  0
   35.1002  -18.8840    0.0000 O   0  0  0  0  0  0  0  0  0  0  0  0
   32.2756  -19.7076    0.0000 Cl  0  0  0  0  0  0  0  0  0  0  0  0
  1  2  2  0
  2  3  1  0
  3  4  2  0
  4  5  1  0
  5  6  2  0
  6  1  1  0
  5  7  1  0
  7  8  2  0
  1  9  1  0
M  END

> <chembl_id>
CHEMBL4567544

> <chembl_pref_name>
None

$$$$

     RDKit          2D

  9  8  0  0  0  0  0  0  0  0999 V2000
    5.6209   -1.1702    0.0000 Cl  0  0  0  0  0  0  0  0  0  0  0  0
    0.7500   -1.0323    0.0000 N   0  0  0  0  0  0  0  0  0  0  0  0
    1.6281   -2.2462    0.0000 C   0  0  0  0  0  0  0  0  0  0  0  0
    1.2135    0.3943    0.0000 N   0  0  0  0  0  0  0  0  0  0  0  0
    1.1385   -3.3418    0.0000 N   0  0  0  0  0  0  0  0  0  0  0  0
   -0.7500   -1.0323    0.0000 C   0  0  0  0  0  0  0  0  0  0  0  0
   -1.2135    0.3943    0.0000 C   0  0  0  0  0  0  0  0  0  0  0  0
    0.0000    1.2760    0.0000 C   0  0  0  0  0  0  0  0  0  0  0  0
    2.8218   -2.1229    0.0000 N   0  0  0  0  0  0  0  0  0  0  0  0
  2  3  1  0
  2  4  1  0
  3  5  2  0
  2  6  1  0
  6  7  2  0
  4  8  2  0
  7  8  1  0
  3  9  1  0
M  END

> <chembl_id>
CHEMBL542185

> <chembl_pref_name>
None

$$$$

     RDKit          2D

 11 12  0  0  0  0  0  0  0  0999 V2000
    3.3792   -5.8542    0.0000 N   0  0  0  0  0  0  0  0  0  0  0  0
    1.9542   -5.0292    0.0000 C   0  0  0  0  0  0  0  0  0  0  0  0
    1.9500   -5.8542    0.0000 C   0  0  0  0  0  0  0  0  0  0  0  0
    2.6667   -6.2667    0.0000 C   0  0  0  0  0  0  0  0  0  0  0  0
    2.6667   -4.6125    0.0000 C   0  0  0  0  0  0  0  0  0  0  0  0
    3.3792   -5.0292    0.0000 C   0  0  0  0  0  0  0  0  0  0  0  0
    1.2375   -4.6167    0.0000 C   0  0  0  0  0  0  0  0  0  0  0  0
    1.2375   -6.2667    0.0000 C   0  0  0  0  0  0  0  0  0  0  0  0
    4.1000   -4.6167    0.0000 C   0  0  0  0  0  0  0  0  0  0  0  0
    0.5250   -5.0292    0.0000 C   0  0  0  0  0  0  0  0  0  0  0  0
    0.5250   -5.8542    0.0000 C   0  0  0  0  0  0  0  0  0  0  0  0
  2  5  1  0
  3  4  1  0
  4  1  1  0
  5  6  1  0
  6  1  1  0
  7  2  2  0
  8  3  2  0
  9  6  1  0
 10  7  1  0
 11  8  1  0
  3  2  1  0
 11 10  2  0
M  END

> <chembl_id>
CHEMBL60434

> <chembl_pref_name>
None

$$$$

     RDKit          2D

  9  9  0  0  0  0  0  0  0  0999 V2000
    0.6624    1.4171    0.0000 O   0  0  0  0  0  0  0  0  0  0  0  0
   -0.0521    1.0046    0.0000 C   0  0  0  0  0  0  0  0  0  0  0  0
   -0.7666    1.4171    0.0000 N   0  0  0  0  0  0  0  0  0  0  0  0
   -0.0521    0.1796    0.0000 C   0  0  0  0  0  0  0  0  0  0  0  0
    0.6624   -0.2329    0.0000 C   0  0  0  0  0  0  0  0  0  0  0  0
   -0.7666   -0.2329    0.0000 C   0  0  0  0  0  0  0  0  0  0  0  0
   -0.7666   -1.0579    0.0000 C   0  0  0  0  0  0  0  0  0  0  0  0
   -0.0521   -1.4704    0.0000 C   0  0  0  0  0  0  0  0  0  0  0  0
    0.6624   -1.0579    0.0000 C   0  0  0  0  0  0  0  0  0  0  0  0
  2  1  2  0
  2  3  1  0
  4  2  1  0
  5  4  2  0
  6  4  1  0
  5  9  1  0
  7  6  2  0
  8  7  1  0
  9  8  2  0
M  END

> <chembl_id>
CHEMBL267373

> <chembl_pref_name>
BENZAMIDE

$$$$

     RDKit          2D

  8  8  0  0  0  0  0  0  0  0999 V2000
   -2.9165    0.6383    0.0000 O   0  0  0  0  0  0  0  0  0  0  0  0
   -2.9636    3.1857    0.0000 O   0  0  0  0  0  0  0  0  0  0  0  0
   -1.8366   -0.1463    0.0000 N   0  0  0  0  0  0  0  0  0  0  0  0
   -2.2491    1.1232    0.0000 C   0  0  0  0  0  0  0  0  0  0  0  0
   -1.5817    0.6383    0.0000 C   0  0  0  0  0  0  0  0  0  0  0  0
   -2.6616   -0.1463    0.0000 C   0  0  0  0  0  0  0  0  0  0  0  0
   -2.2491    1.9482    0.0000 C   0  0  0  0  0  0  0  0  0  0  0  0
   -2.9636    2.3607    0.0000 C   0  0  0  0  0  0  0  0  0  0  0  0
  1  4  1  0
  1  6  1  0
  2  8  1  0
  3  5  1  0
  3  6  2  0
  4  5  2  0
  4  7  1  0
  7  8  1  0
M  END

> <chembl_id>
CHEMBL2004555

> <chembl_pref_name>
None

$$$$

     RDKit          2D

 10 10  0  0  0  0  0  0  0  0999 V2000
    1.5696   -1.8968    0.0000 O   0  0  0  0  0  0  0  0  0  0  0  0
    2.9986    0.5782    0.0000 N   0  0  0  0  0  0  0  0  0  0  0  0
    2.2841   -1.4843    0.0000 C   0  0  0  0  0  0  0  0  0  0  0  0
    2.9986   -0.2468    0.0000 C   0  0  0  0  0  0  0  0  0  0  0  0
    2.2841   -0.6593    0.0000 C   0  0  0  0  0  0  0  0  0  0  0  0
    2.9986   -1.8968    0.0000 C   0  0  0  0  0  0  0  0  0  0  0  0
    3.7130   -0.6593    0.0000 C   0  0  0  0  0  0  0  0  0  0  0  0
    3.7130   -1.4843    0.0000 C   0  0  0  0  0  0  0  0  0  0  0  0
    0.8551   -1.4843    0.0000 C   0  0  0  0  0  0  0  0  0  0  0  0
    0.1407   -1.8968    0.0000 C   0  0  0  0  0  0  0  0  0  0  0  0
  1  3  1  0
  1  9  1  0
  2  4  1  0
  3  5  1  0
  3  6  2  0
  4  5  2  0
  4  7  1  0
  6  8  1  0
  7  8  2  0
  9 10  1  0
M  END

> <chembl_id>
CHEMBL1466168

> <chembl_pref_name>
None

$$$$

     RDKit          2D

  7  7  0  0  0  0  0  0  0  0999 V2000
    1.1385   -3.3418    0.0000 C   0  0  0  0  0  0  0  0  0  0  0  0
    1.6281   -2.2462    0.0000 C   0  0  0  0  0  0  0  0  0  0  0  0
    0.7500   -1.0323    0.0000 N   0  0  0  0  0  0  0  0  0  0  0  0
    1.2135    0.3943    0.0000 C   0  0  0  0  0  0  0  0  0  0  0  0
    0.0000    1.2760    0.0000 C   0  0  0  0  0  0  0  0  0  0  0  0
   -1.2135    0.3943    0.0000 N   0  0  0  0  0  0  0  0  0  0  0  0
   -0.7500   -1.0323    0.0000 C   0  0  0  0  0  0  0  0  0  0  0  0
  1  2  2  0
  2  3  1  0
  3  4  1  0
  4  5  2  0
  5  6  1  0
  6  7  2  0
  7  3  1  0
M  END

> <chembl_id>
CHEMBL3929571

> <chembl_pref_name>
None

$$$$

     RDKit          2D

  9  9  0  0  0  0  0  0  0  0999 V2000
    0.6253   -1.8332    0.0000 C   0  0  0  0  0  0  0  0  0  0  0  0
   -0.0892   -1.4207    0.0000 C   0  0  0  0  0  0  0  0  0  0  0  0
   -0.0892   -0.5957    0.0000 C   0  0  0  0  0  0  0  0  0  0  0  0
   -0.8037   -0.1832    0.0000 C   0  0  0  0  0  0  0  0  0  0  0  0
   -0.8037    0.6418    0.0000 C   0  0  0  0  0  0  0  0  0  0  0  0
    0.6253   -0.1832    0.0000 C   0  0  0  0  0  0  0  0  0  0  0  0
    0.6253    0.6418    0.0000 C   0  0  0  0  0  0  0  0  0  0  0  0
   -0.0892    1.0543    0.0000 C   0  0  0  0  0  0  0  0  0  0  0  0
   -0.0892    1.8793    0.0000 O   0  0  0  0  0  0  0  0  0  0  0  0
  2  1  1  0
  2  3  1  0
  4  3  2  0
  6  3  1  0
  5  4  1  0
  8  5  2  0
  6  7  2  0
  8  7  1  0
  8  9  1  0
M  END

> <chembl_id>
CHEMBL108475

> <chembl_pref_name>
None

$$$$

     RDKit          2D

 11 11  0  0  0  0  0  0  0  0999 V2000
    1.0296   -3.3363    0.0000 C   0  0  0  0  0  0  0  0  0  0  0  0
    1.0283   -4.1638    0.0000 C   0  0  0  0  0  0  0  0  0  0  0  0
    1.7412   -4.5766    0.0000 C   0  0  0  0  0  0  0  0  0  0  0  0
    2.4604   -4.1633    0.0000 C   0  0  0  0  0  0  0  0  0  0  0  0
    2.4572   -3.3323    0.0000 C   0  0  0  0  0  0  0  0  0  0  0  0
    1.7392   -2.9235    0.0000 C   0  0  0  0  0  0  0  0  0  0  0  0
    3.1696   -2.9162    0.0000 C   0  0  0  0  0  0  0  0  0  0  0  0
    3.8861   -3.3251    0.0000 C   0  0  0  0  0  0  0  0  0  0  0  0
    4.5984   -2.9092    0.0000 N   0  0  0  0  0  0  0  0  0  0  0  0
    5.3148   -3.3181    0.0000 C   0  0  0  0  0  0  0  0  0  0  0  0
    4.5943   -2.0843    0.0000 C   0  0  0  0  0  0  0  0  0  0  0  0
  5  6  2  0
  6  1  1  0
  1  2  2  0
  5  7  1  0
  3  4  2  0
  7  8  1  0
  8  9  1  0
  4  5  1  0
  9 10  1  0
  2  3  1  0
  9 11  1  0
M  END

> <chembl_id>
CHEMBL46278

> <chembl_pref_name>
None

$$$$

     RDKit          2D

 11 12  0  0  0  0  0  0  0  0999 V2000
    2.3667   -2.3292    0.0000 C   0  0  0  0  0  0  0  0  0  0  0  0
    2.8125   -3.0917    0.0000 C   0  0  0  0  0  0  0  0  0  0  0  0
    3.2542   -2.3292    0.0000 C   0  0  0  0  0  0  0  0  0  0  0  0
    1.6000   -1.8917    0.0000 C   0  0  0  0  0  0  0  0  0  0  0  0
    0.8375   -2.3417    0.0000 C   0  0  0  0  0  0  0  0  0  0  0  0
   -0.6958   -3.2292    0.0000 C   0  0  0  0  0  0  0  0  0  0  0  0
    0.8375   -3.2292    0.0000 C   0  0  0  0  0  0  0  0  0  0  0  0
    0.0667   -1.9000    0.0000 C   0  0  0  0  0  0  0  0  0  0  0  0
    0.0667   -3.6667    0.0000 C   0  0  0  0  0  0  0  0  0  0  0  0
   -0.6958   -2.3417    0.0000 C   0  0  0  0  0  0  0  0  0  0  0  0
   -1.4583   -3.6667    0.0000 O   0  0  0  0  0  0  0  0  0  0  0  0
  2  1  1  0
  3  1  1  0
  4  1  1  0
  5  4  1  0
  6 10  2  0
  7  5  1  0
  8  5  2  0
  9  7  2  0
 10  8  1  0
 11  6  1  0
  2  3  1  0
  9  6  1  0
M  END

> <chembl_id>
CHEMBL162030

> <chembl_pref_name>
None

$$$$

     RDKit          2D

 11 11  0  0  0  0  0  0  0  0999 V2000
   -4.5931  -27.7500    0.0000 C   0  0  0  0  0  0  0  0  0  0  0  0
   -4.5943  -28.5773    0.0000 C   0  0  0  0  0  0  0  0  0  0  0  0
   -3.8794  -28.9902    0.0000 C   0  0  0  0  0  0  0  0  0  0  0  0
   -3.1630  -28.5769    0.0000 C   0  0  0  0  0  0  0  0  0  0  0  0
   -3.1659  -27.7463    0.0000 C   0  0  0  0  0  0  0  0  0  0  0  0
   -3.8812  -27.3372    0.0000 C   0  0  0  0  0  0  0  0  0  0  0  0
   -3.8837  -26.5122    0.0000 N   0  0  0  0  0  0  0  0  0  0  0  0
   -3.1705  -26.0976    0.0000 C   0  0  0  0  0  0  0  0  0  0  0  0
   -3.1729  -25.2726    0.0000 C   0  0  0  0  0  0  0  0  0  0  0  0
   -4.5994  -26.1018    0.0000 C   0  0  0  0  0  0  0  0  0  0  0  0
   -4.6019  -25.2768    0.0000 C   0  0  0  0  0  0  0  0  0  0  0  0
  5  6  2  0
  6  1  1  0
  1  2  2  0
  6  7  1  0
  3  4  2  0
  7  8  1  0
  8  9  1  0
  4  5  1  0
  7 10  1  0
  2  3  1  0
 10 11  1  0
M  END

> <chembl_id>
CHEMBL252071

> <chembl_pref_name>
DIETHYLANILINE

$$$$

     RDKit          2D

  8  8  0  0  0  0  0  0  0  0999 V2000
   -4.6487  -18.2643    0.0000 C   0  0  0  0  0  0  0  0  0  0  0  0
   -4.6499  -19.0911    0.0000 C   0  0  0  0  0  0  0  0  0  0  0  0
   -3.9355  -19.5037    0.0000 C   0  0  0  0  0  0  0  0  0  0  0  0
   -3.2194  -19.0907    0.0000 C   0  0  0  0  0  0  0  0  0  0  0  0
   -3.2223  -18.2606    0.0000 C   0  0  0  0  0  0  0  0  0  0  0  0
   -3.9373  -17.8517    0.0000 C   0  0  0  0  0  0  0  0  0  0  0  0
   -3.9397  -17.0272    0.0000 O   0  0  0  0  0  0  0  0  0  0  0  0
   -3.9357  -20.3282    0.0000 N   0  0  0  0  0  0  0  0  0  0  0  0
  4  5  1  0
  5  6  2  0
  6  1  1  0
  2  3  1  0
  6  7  1  0
  3  8  1  0
  3  4  2  0
  1  2  2  0
M  END

> <chembl_id>
CHEMBL1142

> <chembl_pref_name>
4-AMINOPHENOL

$$$$

     RDKit          2D

 10 10  0  0  0  0  0  0  0  0999 V2000
    2.7292   -5.0542    0.0000 C   0  0  0  0  0  0  0  0  0  0  0  0
    2.0042   -4.6417    0.0000 C   0  0  0  0  0  0  0  0  0  0  0  0
    2.7292   -5.8792    0.0000 C   0  0  0  0  0  0  0  0  0  0  0  0
    1.3000   -5.0542    0.0000 C   0  0  0  0  0  0  0  0  0  0  0  0
    2.0042   -6.2917    0.0000 N   0  0  0  0  0  0  0  0  0  0  0  0
    1.3000   -5.8792    0.0000 C   0  0  0  0  0  0  0  0  0  0  0  0
    3.4417   -4.6375    0.0000 F   0  0  0  0  0  0  0  0  0  0  0  0
    3.4417   -6.2917    0.0000 O   0  0  0  0  0  0  0  0  0  0  0  0
    2.0042   -3.8167    0.0000 N   0  0  0  0  0  0  0  0  0  0  0  0
    0.5875   -4.6417    0.0000 F   0  0  0  0  0  0  0  0  0  0  0  0
  2  1  2  0
  3  1  1  0
  4  2  1  0
  5  3  2  0
  6  5  1  0
  7  1  1  0
  8  3  1  0
  9  2  1  0
 10  4  1  0
  4  6  2  0
M  END

> <chembl_id>
CHEMBL324958

> <chembl_pref_name>
None

$$$$

     RDKit          2D

  9  9  0  0  0  0  0  0  0  0999 V2000
    4.9417   -7.1625    0.0000 N   0  0  0  0  0  0  0  0  0  0  0  0
    4.4292   -7.4667    0.0000 C   0  0  0  0  0  0  0  0  0  0  0  0
    3.9125   -7.1625    0.0000 C   0  0  0  0  0  0  0  0  0  0  0  0
    4.9417   -6.5542    0.0000 C   0  0  0  0  0  0  0  0  0  0  0  0
    4.4292   -6.2542    0.0000 N   0  0  0  0  0  0  0  0  0  0  0  0
    3.9125   -6.5625    0.0000 C   0  0  0  0  0  0  0  0  0  0  0  0
    4.4292   -8.0625    0.0000 O   0  0  0  0  0  0  0  0  0  0  0  0
    5.4667   -6.2417    0.0000 O   0  0  0  0  0  0  0  0  0  0  0  0
    3.3792   -7.4667    0.0000 Cl  0  0  0  0  0  0  0  0  0  0  0  0
  2  1  2  0
  3  2  1  0
  4  1  1  0
  5  4  2  0
  6  5  1  0
  7  2  1  0
  8  4  1  0
  9  3  1  0
  3  6  2  0
M  END

> <chembl_id>
CHEMBL144082

> <chembl_pref_name>
None

$$$$

     RDKit          2D

  8  8  0  0  0  0  0  0  0  0999 V2000
    2.8790   -2.7998    0.0000 S   0  0  0  0  0  0  0  0  0  0  0  0
    3.7040   -2.7998    0.0000 C   0  0  0  0  0  0  0  0  0  0  0  0
    3.9607   -2.0158    0.0000 C   0  0  0  0  0  0  0  0  0  0  0  0
    3.2915   -1.5291    0.0000 N   0  0  0  0  0  0  0  0  0  0  0  0
    2.6264   -2.0158    0.0000 N   0  0  0  0  0  0  0  0  0  0  0  0
    4.1880   -3.4679    0.0000 C   0  0  0  0  0  0  0  0  0  0  0  0
    3.8517   -4.2211    0.0000 N   0  0  0  0  0  0  0  0  0  0  0  0
    4.3357   -4.8890    0.0000 O   0  0  0  0  0  0  0  0  0  0  0  0
  1  2  1  0
  2  3  2  0
  3  4  1  0
  4  5  2  0
  5  1  1  0
  2  6  1  0
  6  7  2  0
  7  8  1  0
M  END

> <chembl_id>
CHEMBL19953

> <chembl_pref_name>
None

$$$$

     RDKit          2D

 10 10  0  0  0  0  0  0  0  0999 V2000
   13.0736   -7.0958    0.0000 C   0  0  0  0  0  0  0  0  0  0  0  0
   13.0724   -7.9232    0.0000 C   0  0  0  0  0  0  0  0  0  0  0  0
   13.7872   -8.3360    0.0000 N   0  0  0  0  0  0  0  0  0  0  0  0
   14.5037   -7.9227    0.0000 C   0  0  0  0  0  0  0  0  0  0  0  0
   14.5008   -7.0922    0.0000 C   0  0  0  0  0  0  0  0  0  0  0  0
   13.7854   -6.6830    0.0000 N   0  0  0  0  0  0  0  0  0  0  0  0
   15.2137   -6.6770    0.0000 C   0  0  0  0  0  0  0  0  0  0  0  0
   12.3590   -6.6835    0.0000 C   0  0  0  0  0  0  0  0  0  0  0  0
   12.3576   -8.3351    0.0000 C   0  0  0  0  0  0  0  0  0  0  0  0
   15.2188   -8.3341    0.0000 C   0  0  0  0  0  0  0  0  0  0  0  0
  2  3  1  0
  5  6  2  0
  6  1  1  0
  1  2  2  0
  5  7  1  0
  3  4  2  0
  1  8  1  0
  2  9  1  0
  4  5  1  0
  4 10  1  0
M  END

> <chembl_id>
CHEMBL303697

> <chembl_pref_name>
LIGUSTRAZINE

$$$$

     RDKit          2D

 10 10  0  0  0  0  0  0  0  0999 V2000
    1.9986   -7.6342    0.0000 C   0  0  0  0  0  0  0  0  0  0  0  0
    2.7074   -7.2197    0.0000 C   0  0  0  0  0  0  0  0  0  0  0  0
    3.4085   -5.9842    0.0000 N   0  0  0  0  0  0  0  0  0  0  0  0
    3.4201   -7.6264    0.0000 O   0  0  0  0  0  0  0  0  0  0  0  0
    2.6997   -6.3947    0.0000 C   0  0  0  0  0  0  0  0  0  0  0  0
    1.9986   -8.4592    0.0000 C   0  0  0  0  0  0  0  0  0  0  0  0
    1.2821   -7.2197    0.0000 C   0  0  0  0  0  0  0  0  0  0  0  0
    1.2821   -8.8697    0.0000 C   0  0  0  0  0  0  0  0  0  0  0  0
    0.5733   -7.6342    0.0000 C   0  0  0  0  0  0  0  0  0  0  0  0
    0.5733   -8.4592    0.0000 C   0  0  0  0  0  0  0  0  0  0  0  0
  2  1  1  0
  3  5  1  0
  2  4  1  1
  5  2  1  0
  6  1  1  0
  7  1  2  0
  8  6  2  0
  9  7  1  0
 10  9  2  0
  8 10  1  0
M  END

> <chembl_id>
CHEMBL19853

> <chembl_pref_name>
None

$$$$

     RDKit          2D

  8  8  0  0  0  0  0  0  0  0999 V2000
    5.0125   -1.5667    0.0000 S   0  0  0  0  0  0  0  0  0  0  0  0
    4.5625   -1.9667    0.0000 N   0  0  0  0  0  0  0  0  0  0  0  0
    4.8000   -2.5167    0.0000 C   0  0  0  0  0  0  0  0  0  0  0  0
    5.5292   -1.8667    0.0000 N   0  0  0  0  0  0  0  0  0  0  0  0
    5.4000   -2.4542    0.0000 C   0  0  0  0  0  0  0  0  0  0  0  0
    4.4917   -3.0292    0.0000 C   0  0  0  0  0  0  0  0  0  0  0  0
    4.7917   -3.5542    0.0000 N   0  0  0  0  0  0  0  0  0  0  0  0
    5.3875   -3.5542    0.0000 O   0  0  0  0  0  0  0  0  0  0  0  0
  2  1  1  0
  3  2  2  0
  4  1  1  0
  5  4  2  0
  6  3  1  0
  7  6  2  0
  8  7  1  0
  3  5  1  0
M  END

> <chembl_id>
CHEMBL19205

> <chembl_pref_name>
None

$$$$

     RDKit          2D

  8  8  0  0  0  0  0  0  0  0999 V2000
   -0.7629   -7.7111    0.0000 N   0  0  0  0  0  0  0  0  0  0  0  0
   -0.7629   -8.5350    0.0000 C   0  0  0  0  0  0  0  0  0  0  0  0
   -0.0481   -8.9469    0.0000 S   0  0  0  0  0  0  0  0  0  0  0  0
   -1.4778   -8.9469    0.0000 N   0  0  0  0  0  0  0  0  0  0  0  0
   -2.1926   -8.5350    0.0000 C   0  0  0  0  0  0  0  0  0  0  0  0
   -2.9033   -8.9469    0.0000 O   0  0  0  0  0  0  0  0  0  0  0  0
   -2.1926   -7.7111    0.0000 C   0  0  0  0  0  0  0  0  0  0  0  0
   -1.4778   -7.2992    0.0000 C   0  0  0  0  0  0  0  0  0  0  0  0
  1  2  1  0
  2  3  2  0
  2  4  1  0
  4  5  1  0
  5  6  2  0
  5  7  1  0
  7  8  2  0
  1  8  1  0
M  END

> <chembl_id>
CHEMBL345768

> <chembl_pref_name>
THIOURACIL

$$$$

     RDKit          2D

 10 10  0  0  0  0  0  0  0  0999 V2000
   -2.8208   -0.6500    0.0000 C   0  0  0  0  0  0  0  0  0  0  0  0
   -3.3875   -0.4667    0.0000 N   0  0  0  0  0  0  0  0  0  0  0  0
   -2.0333   -1.2250    0.0000 N   0  0  0  0  0  0  0  0  0  0  0  0
   -2.3333   -0.3000    0.0000 N   0  0  0  0  0  0  0  0  0  0  0  0
   -2.6333   -1.2250    0.0000 C   0  0  0  0  0  0  0  0  0  0  0  0
   -1.8458   -0.6500    0.0000 C   0  0  0  0  0  0  0  0  0  0  0  0
   -3.5208    0.1208    0.0000 O   0  0  0  0  0  0  0  0  0  0  0  0
   -3.8375   -0.8667    0.0000 O   0  0  0  0  0  0  0  0  0  0  0  0
   -2.9833   -1.7042    0.0000 F   0  0  0  0  0  0  0  0  0  0  0  0
   -2.3333    0.3000    0.0000 C   0  0  0  0  0  0  0  0  0  0  0  0
  2  1  1  0
  3  5  1  0
  4  1  1  0
  5  1  2  0
  6  4  1  0
  7  2  1  0
  8  2  2  0
  9  5  1  0
 10  4  1  0
  6  3  2  0
M  CHG  2   2   1   7  -1
M  END

> <chembl_id>
CHEMBL288601

> <chembl_pref_name>
None

$$$$

     RDKit          2D

  9  9  0  0  0  0  0  0  0  0999 V2000
    2.3587  -15.6464    0.0000 C   0  0  0  0  0  0  0  0  0  0  0  0
    2.3574  -16.4739    0.0000 C   0  0  0  0  0  0  0  0  0  0  0  0
    3.0703  -16.8868    0.0000 C   0  0  0  0  0  0  0  0  0  0  0  0
    3.7896  -16.4735    0.0000 C   0  0  0  0  0  0  0  0  0  0  0  0
    3.7865  -15.6424    0.0000 C   0  0  0  0  0  0  0  0  0  0  0  0
    3.0684  -15.2336    0.0000 C   0  0  0  0  0  0  0  0  0  0  0  0
    3.0645  -14.4087    0.0000 C   0  0  0  0  0  0  0  0  0  0  0  0
    3.7769  -13.9929    0.0000 N   0  0  0  0  0  0  0  0  0  0  0  0
    2.3481  -13.9995    0.0000 C   0  0  0  0  0  0  0  0  0  0  0  0
  4  5  1  0
  2  3  1  0
  5  6  2  0
  6  1  1  0
  1  2  2  0
  6  7  1  0
  3  4  2  0
  7  8  1  1
  7  9  1  0
M  END

> <chembl_id>
CHEMBL19969

> <chembl_pref_name>
None

$$$$

     RDKit          2D

  9  9  0  0  0  0  0  0  0  0999 V2000
    4.7417   -2.1542    0.0000 C   0  0  0  0  0  0  0  0  0  0  0  0
    5.4625   -2.5667    0.0000 C   0  0  0  0  0  0  0  0  0  0  0  0
    4.7417   -1.3292    0.0000 S   0  0  0  0  0  0  0  0  0  0  0  0
    6.1750   -2.1542    0.0000 O   0  0  0  0  0  0  0  0  0  0  0  0
    4.0292   -2.5750    0.0000 C   0  0  0  0  0  0  0  0  0  0  0  0
    5.4625   -3.4000    0.0000 C   0  0  0  0  0  0  0  0  0  0  0  0
    6.8917   -2.5625    0.0000 C   0  0  0  0  0  0  0  0  0  0  0  0
    4.0292   -3.4000    0.0000 C   0  0  0  0  0  0  0  0  0  0  0  0
    4.7417   -3.8125    0.0000 C   0  0  0  0  0  0  0  0  0  0  0  0
  2  1  2  0
  3  1  1  0
  4  2  1  0
  5  1  1  0
  6  2  1  0
  7  4  1  0
  8  5  2  0
  9  8  1  0
  9  6  2  0
M  END

> <chembl_id>
CHEMBL333973

> <chembl_pref_name>
None

$$$$

     RDKit          2D

 10 10  0  0  0  0  0  0  0  0999 V2000
    2.5951   -3.0039    0.0000 C   0  0  0  0  0  0  0  0  0  0  0  0
    3.6331   -3.6060    0.0000 O   0  0  0  0  0  0  0  0  0  0  0  0
    2.5973   -1.5031    0.0000 C   0  0  0  0  0  0  0  0  0  0  0  0
    1.5548   -3.6021    0.0000 O   0  0  0  0  0  0  0  0  0  0  0  0
    1.2990   -0.7500    0.0000 C   0  0  0  0  0  0  0  0  0  0  0  0
    1.2990    0.7500    0.0000 C   0  0  0  0  0  0  0  0  0  0  0  0
    0.0000   -1.5000    0.0000 C   0  0  0  0  0  0  0  0  0  0  0  0
    0.0000    1.5000    0.0000 C   0  0  0  0  0  0  0  0  0  0  0  0
   -1.2990   -0.7500    0.0000 C   0  0  0  0  0  0  0  0  0  0  0  0
   -1.2990    0.7500    0.0000 C   0  0  0  0  0  0  0  0  0  0  0  0
  2  1  2  0
  3  1  1  0
  4  1  1  0
  5  3  1  0
  6  5  2  0
  7  5  1  0
  8  6  1  0
  9  7  2  0
 10  9  1  0
 10  8  2  0
M  END

> <chembl_id>
CHEMBL1044

> <chembl_pref_name>
PHENYLACETIC ACID

$$$$

     RDKit          2D

 11 12  0  0  0  0  0  0  0  0999 V2000
   -3.1182    0.9671    0.0000 N   0  0  0  0  0  0  0  0  0  0  0  0
   -3.8326    1.3796    0.0000 C   0  0  0  0  0  0  0  0  0  0  0  0
   -3.8326    2.2046    0.0000 C   0  0  0  0  0  0  0  0  0  0  0  0
   -3.1182    2.6171    0.0000 C   0  0  0  0  0  0  0  0  0  0  0  0
   -2.4037    2.2046    0.0000 C   0  0  0  0  0  0  0  0  0  0  0  0
   -1.6892    2.6171    0.0000 C   0  0  0  0  0  0  0  0  0  0  0  0
   -0.9748    2.2046    0.0000 C   0  0  0  0  0  0  0  0  0  0  0  0
   -0.9748    1.3796    0.0000 C   0  0  0  0  0  0  0  0  0  0  0  0
   -1.6892    0.9671    0.0000 C   0  0  0  0  0  0  0  0  0  0  0  0
   -2.4037    1.3796    0.0000 C   0  0  0  0  0  0  0  0  0  0  0  0
   -4.5471    0.9671    0.0000 C   0  0  0  0  0  0  0  0  0  0  0  0
  1  2  1  0
  2  3  1  0
  3  4  1  0
  4  5  1  0
  5  6  1  0
  6  7  2  0
  7  8  1  0
  8  9  2  0
  9 10  1  0
  1 10  1  0
  5 10  2  0
  2 11  1  0
M  END

> <chembl_id>
CHEMBL589607

> <chembl_pref_name>
None

$$$$

     RDKit          2D

 10 10  0  0  0  0  0  0  0  0999 V2000
    2.0608   -1.5415    0.0000 C   0  0  0  0  0  0  0  0  0  0  0  0
    2.0608    0.1085    0.0000 C   0  0  0  0  0  0  0  0  0  0  0  0
    1.3463   -1.1290    0.0000 C   0  0  0  0  0  0  0  0  0  0  0  0
    1.3463   -0.3040    0.0000 C   0  0  0  0  0  0  0  0  0  0  0  0
    2.7753   -1.1290    0.0000 C   0  0  0  0  0  0  0  0  0  0  0  0
    2.7753   -0.3040    0.0000 C   0  0  0  0  0  0  0  0  0  0  0  0
    2.0608   -2.3665    0.0000 C   0  0  0  0  0  0  0  0  0  0  0  0
    2.0608    0.9335    0.0000 C   0  0  0  0  0  0  0  0  0  0  0  0
    2.7753   -2.7790    0.0000 C   0  0  0  0  0  0  0  0  0  0  0  0
    1.3463    1.3460    0.0000 C   0  0  0  0  0  0  0  0  0  0  0  0
  1  3  2  0
  1  5  1  0
  1  7  1  0
  2  4  2  0
  2  6  1  0
  2  8  1  0
  3  4  1  0
  5  6  2  0
  7  9  2  0
  8 10  2  0
M  END

> <chembl_id>
CHEMBL1520722

> <chembl_pref_name>
None

$$$$

     RDKit          2D

 10 10  0  0  0  0  0  0  0  0999 V2000
   -0.0688   -1.8743    0.0000 C   0  0  0  0  0  0  0  0  0  0  0  0
   -0.7362   -2.3592    0.0000 N   0  0  0  0  0  0  0  0  0  0  0  0
   -0.4813   -3.1439    0.0000 N   0  0  0  0  0  0  0  0  0  0  0  0
    0.3437   -3.1439    0.0000 N   0  0  0  0  0  0  0  0  0  0  0  0
   -0.0688   -1.0493    0.0000 C   0  0  0  0  0  0  0  0  0  0  0  0
    0.5986   -2.3592    0.0000 N   0  0  0  0  0  0  0  0  0  0  0  0
    0.6457   -0.6368    0.0000 C   0  0  0  0  0  0  0  0  0  0  0  0
    0.6457    0.1882    0.0000 O   0  0  0  0  0  0  0  0  0  0  0  0
   -0.7833   -0.6368    0.0000 N   0  0  0  0  0  0  0  0  0  0  0  0
    1.3601   -1.0493    0.0000 O   0  0  0  0  0  0  0  0  0  0  0  0
  2  1  1  0
  3  2  1  0
  4  6  1  0
  5  1  1  0
  6  1  2  0
  7  5  1  0
  8  7  2  0
  9  5  1  0
 10  7  1  0
  3  4  2  0
M  END

> <chembl_id>
CHEMBL140784

> <chembl_pref_name>
None

$$$$

     RDKit          2D

 10 11  0  0  0  0  0  0  0  0999 V2000
   -3.4722   -0.7091    0.0000 O   0  0  0  0  0  0  0  0  0  0  0  0
   -1.6257   -2.7452    0.0000 N   0  0  0  0  0  0  0  0  0  0  0  0
   -2.4103   -3.0002    0.0000 N   0  0  0  0  0  0  0  0  0  0  0  0
   -2.8953   -2.3327    0.0000 N   0  0  0  0  0  0  0  0  0  0  0  0
   -1.6257   -1.9202    0.0000 C   0  0  0  0  0  0  0  0  0  0  0  0
   -2.4103   -1.6653    0.0000 C   0  0  0  0  0  0  0  0  0  0  0  0
   -0.8411   -1.6653    0.0000 C   0  0  0  0  0  0  0  0  0  0  0  0
   -0.8411   -3.0002    0.0000 C   0  0  0  0  0  0  0  0  0  0  0  0
   -0.3562   -2.3327    0.0000 C   0  0  0  0  0  0  0  0  0  0  0  0
   -2.6653   -0.8807    0.0000 C   0  0  0  0  0  0  0  0  0  0  0  0
  1 10  1  0
  2  3  1  0
  2  5  1  0
  2  8  1  0
  3  4  2  0
  4  6  1  0
  5  6  2  0
  5  7  1  0
  6 10  1  0
  7  9  1  0
  8  9  1  0
M  END

> <chembl_id>
CHEMBL1970887

> <chembl_pref_name>
None

$$$$

     RDKit          2D

 10 10  0  0  0  0  0  0  0  0999 V2000
    5.5703  -22.4993    0.0000 C   0  0  0  0  0  0  0  0  0  0  0  0
    5.5691  -23.3261    0.0000 C   0  0  0  0  0  0  0  0  0  0  0  0
    6.2835  -23.7387    0.0000 C   0  0  0  0  0  0  0  0  0  0  0  0
    6.9996  -23.3257    0.0000 C   0  0  0  0  0  0  0  0  0  0  0  0
    6.9967  -22.4956    0.0000 C   0  0  0  0  0  0  0  0  0  0  0  0
    6.2817  -22.0867    0.0000 C   0  0  0  0  0  0  0  0  0  0  0  0
    6.2793  -21.2622    0.0000 C   0  0  0  0  0  0  0  0  0  0  0  0
    6.9921  -20.8478    0.0000 O   0  0  0  0  0  0  0  0  0  0  0  0
    5.5640  -20.8520    0.0000 O   0  0  0  0  0  0  0  0  0  0  0  0
    7.7092  -22.0806    0.0000 F   0  0  0  0  0  0  0  0  0  0  0  0
  2  3  1  0
  5  6  2  0
  6  1  1  0
  1  2  2  0
  6  7  1  0
  3  4  2  0
  7  8  1  0
  7  9  2  0
  4  5  1  0
  5 10  1  0
M  END

> <chembl_id>
CHEMBL114383

> <chembl_pref_name>
None

$$$$

     RDKit          2D

  8  8  0  0  0  0  0  0  0  0999 V2000
    8.0976   -8.9124    0.0000 C   0  0  0  0  0  0  0  0  0  0  0  0
    8.8156   -9.3188    0.0000 C   0  0  0  0  0  0  0  0  0  0  0  0
    8.9092  -10.1367    0.0000 N   0  0  0  0  0  0  0  0  0  0  0  0
    9.7177  -10.3014    0.0000 C   0  0  0  0  0  0  0  0  0  0  0  0
   10.1242   -9.5834    0.0000 N   0  0  0  0  0  0  0  0  0  0  0  0
    9.5668   -8.9751    0.0000 N   0  0  0  0  0  0  0  0  0  0  0  0
    8.3011  -10.6942    0.0000 C   0  0  0  0  0  0  0  0  0  0  0  0
   10.0596  -11.0523    0.0000 O   0  0  0  0  0  0  0  0  0  0  0  0
  3  4  1  0
  4  5  1  0
  5  6  1  0
  6  2  2  0
  1  2  1  0
  3  7  1  0
  2  3  1  0
  4  8  2  0
M  END

> <chembl_id>
CHEMBL451392

> <chembl_pref_name>
None

$$$$

     RDKit          2D

  7  7  0  0  0  0  0  0  0  0999 V2000
   -4.0417   -6.4292    0.0000 N   0  0  0  0  0  0  0  0  0  0  0  0
   -3.2167   -6.4292    0.0000 N   0  0  0  0  0  0  0  0  0  0  0  0
   -2.9599   -5.6451    0.0000 N   0  0  0  0  0  0  0  0  0  0  0  0
   -3.6292   -5.1583    0.0000 C   0  0  0  0  0  0  0  0  0  0  0  0
   -4.2942   -5.6451    0.0000 C   0  0  0  0  0  0  0  0  0  0  0  0
   -3.6305   -4.3333    0.0000 C   0  0  0  0  0  0  0  0  0  0  0  0
   -2.9166   -3.9197    0.0000 O   0  0  0  0  0  0  0  0  0  0  0  0
  2  3  2  0
  3  4  1  0
  4  5  2  0
  5  1  1  0
  1  2  1  0
  4  6  1  0
  6  7  2  0
M  END

> <chembl_id>
CHEMBL505614

> <chembl_pref_name>
None

$$$$

     RDKit          2D

 11 12  0  0  0  0  0  0  0  0999 V2000
    3.5292    2.1958    0.0000 C   0  0  0  0  0  0  0  0  0  0  0  0
    2.7417    1.9375    0.0000 C   0  0  0  0  0  0  0  0  0  0  0  0
    2.7417    1.1125    0.0000 C   0  0  0  0  0  0  0  0  0  0  0  0
    4.0125    1.5208    0.0000 C   0  0  0  0  0  0  0  0  0  0  0  0
    3.5292    0.8583    0.0000 C   0  0  0  0  0  0  0  0  0  0  0  0
    3.7792    2.9833    0.0000 O   0  0  0  0  0  0  0  0  0  0  0  0
    2.0292    2.3500    0.0000 C   0  0  0  0  0  0  0  0  0  0  0  0
    2.0292    0.7000    0.0000 C   0  0  0  0  0  0  0  0  0  0  0  0
    4.8375    1.5208    0.0000 C   0  0  0  0  0  0  0  0  0  0  0  0
    1.3167    1.9375    0.0000 C   0  0  0  0  0  0  0  0  0  0  0  0
    1.3167    1.1125    0.0000 C   0  0  0  0  0  0  0  0  0  0  0  0
  2  1  1  0
  3  2  1  0
  4  1  1  0
  5  4  1  0
  6  1  2  0
  7  2  2  0
  8  3  2  0
  9  4  1  0
 10  7  1  0
 11 10  2  0
  5  3  1  0
 11  8  1  0
M  END

> <chembl_id>
CHEMBL155191

> <chembl_pref_name>
None

$$$$

     RDKit          2D

  9  9  0  0  0  0  0  0  0  0999 V2000
    0.1806   -1.7652    0.0000 C   0  0  0  0  0  0  0  0  0  0  0  0
    0.1806   -0.9402    0.0000 C   0  0  0  0  0  0  0  0  0  0  0  0
   -0.5339   -0.5277    0.0000 C   0  0  0  0  0  0  0  0  0  0  0  0
   -0.5339    0.2973    0.0000 C   0  0  0  0  0  0  0  0  0  0  0  0
    0.1806    0.7098    0.0000 C   0  0  0  0  0  0  0  0  0  0  0  0
    0.1806    1.5348    0.0000 C   0  0  0  0  0  0  0  0  0  0  0  0
    0.8951    0.2973    0.0000 C   0  0  0  0  0  0  0  0  0  0  0  0
    0.8951   -0.5277    0.0000 C   0  0  0  0  0  0  0  0  0  0  0  0
   -1.2483    0.7098    0.0000 O   0  0  0  0  0  0  0  0  0  0  0  0
  2  1  1  0
  2  3  2  0
  8  2  1  0
  3  4  1  0
  5  4  2  0
  4  9  1  0
  5  6  1  0
  5  7  1  0
  7  8  2  0
M  END

> <chembl_id>
CHEMBL192591

> <chembl_pref_name>
None

$$$$

     RDKit          2D

 11 11  0  0  0  0  0  0  0  0999 V2000
    0.8042   -3.9917    0.0000 N   0  0  0  0  0  0  0  0  0  0  0  0
    2.2292   -2.3292    0.0000 C   0  0  0  0  0  0  0  0  0  0  0  0
    2.9500   -2.7417    0.0000 C   0  0  0  0  0  0  0  0  0  0  0  0
    4.3750   -2.7417    0.0000 N   0  0  0  0  0  0  0  0  0  0  0  0
    1.5167   -2.7500    0.0000 C   0  0  0  0  0  0  0  0  0  0  0  0
    1.5167   -3.5792    0.0000 C   0  0  0  0  0  0  0  0  0  0  0  0
    3.6625   -2.3292    0.0000 C   0  0  0  0  0  0  0  0  0  0  0  0
    0.0917   -3.5792    0.0000 C   0  0  0  0  0  0  0  0  0  0  0  0
    4.3625   -3.5667    0.0000 C   0  0  0  0  0  0  0  0  0  0  0  0
    0.8042   -2.3375    0.0000 C   0  0  0  0  0  0  0  0  0  0  0  0
    0.0917   -2.7500    0.0000 C   0  0  0  0  0  0  0  0  0  0  0  0
  2  5  1  0
  3  2  2  0
  4  7  1  0
  5  6  1  0
  6  1  2  0
  7  3  1  0
  8  1  1  0
  9  4  1  0
 10 11  1  0
 11  8  2  0
 10  5  2  0
M  END

> <chembl_id>
CHEMBL150421

> <chembl_pref_name>
None

$$$$

     RDKit          2D

  9  9  0  0  0  0  0  0  0  0999 V2000
    2.8819   -4.1333    0.0000 Cl  0  0  0  0  0  0  0  0  0  0  0  0
    2.8693    0.0000    0.0000 N   0  0  0  0  0  0  0  0  0  0  0  0
    2.8693   -1.6513    0.0000 C   0  0  0  0  0  0  0  0  0  0  0  0
    2.8818   -3.3084    0.0000 C   0  0  0  0  0  0  0  0  0  0  0  0
    2.1608   -2.0739    0.0000 C   0  0  0  0  0  0  0  0  0  0  0  0
    3.5903   -2.0608    0.0000 C   0  0  0  0  0  0  0  0  0  0  0  0
    2.1608   -2.8988    0.0000 C   0  0  0  0  0  0  0  0  0  0  0  0
    3.5904   -2.8859    0.0000 C   0  0  0  0  0  0  0  0  0  0  0  0
    2.8693   -0.8264    0.0000 C   0  0  0  0  0  0  0  0  0  0  0  0
  1  4  1  0
  2  9  3  0
  3  5  2  0
  3  6  1  0
  3  9  1  0
  4  7  2  0
  4  8  1  0
  5  7  1  0
  6  8  2  0
M  END

> <chembl_id>
CHEMBL3188114

> <chembl_pref_name>
None

$$$$

     RDKit          2D

 10 11  0  0  0  0  0  0  0  0999 V2000
    0.8250   -0.5167    0.0000 N   0  0  0  0  0  0  0  0  0  0  0  0
    1.3125    0.1458    0.0000 N   0  0  0  0  0  0  0  0  0  0  0  0
    0.0417   -0.2667    0.0000 C   0  0  0  0  0  0  0  0  0  0  0  0
    0.8250    0.8208    0.0000 N   0  0  0  0  0  0  0  0  0  0  0  0
    0.0417    0.5583    0.0000 C   0  0  0  0  0  0  0  0  0  0  0  0
    1.0792   -1.3042    0.0000 N   0  0  0  0  0  0  0  0  0  0  0  0
   -0.6750   -0.6792    0.0000 C   0  0  0  0  0  0  0  0  0  0  0  0
   -0.6750    0.9708    0.0000 C   0  0  0  0  0  0  0  0  0  0  0  0
   -1.3958   -0.2667    0.0000 C   0  0  0  0  0  0  0  0  0  0  0  0
   -1.3958    0.5583    0.0000 C   0  0  0  0  0  0  0  0  0  0  0  0
  2  1  1  0
  3  1  1  0
  4  2  1  0
  5  3  1  0
  6  1  1  0
  7  3  2  0
  8  5  2  0
  9  7  1  0
 10  9  2  0
  5  4  1  0
  8 10  1  0
M  END

> <chembl_id>
CHEMBL362271

> <chembl_pref_name>
None

$$$$

     RDKit          2D

 10 10  0  0  0  0  0  0  0  0999 V2000
    1.5167    0.0083    0.0000 C   0  0  0  0  0  0  0  0  0  0  0  0
    0.8042    0.4208    0.0000 C   0  0  0  0  0  0  0  0  0  0  0  0
    0.7917    1.2375    0.0000 N   0  0  0  0  0  0  0  0  0  0  0  0
    1.5167   -0.8167    0.0000 O   0  0  0  0  0  0  0  0  0  0  0  0
    2.2292    0.4208    0.0000 N   0  0  0  0  0  0  0  0  0  0  0  0
   -0.6208    0.4083    0.0000 N   0  0  0  0  0  0  0  0  0  0  0  0
    0.1000    0.0083    0.0000 C   0  0  0  0  0  0  0  0  0  0  0  0
    2.9417    0.0083    0.0000 N   0  0  0  0  0  0  0  0  0  0  0  0
    0.0792    1.6458    0.0000 C   0  0  0  0  0  0  0  0  0  0  0  0
   -0.6250    1.2333    0.0000 C   0  0  0  0  0  0  0  0  0  0  0  0
  2  1  1  0
  3  2  1  0
  4  1  2  0
  5  1  1  0
  6  7  1  0
  7  2  2  0
  8  5  1  0
  9  3  2  0
 10  6  2  0
  9 10  1  0
M  END

> <chembl_id>
CHEMBL125613

> <chembl_pref_name>
PYRAZINE CARBOXYLIC ACID HYDRAZIDE

$$$$

     RDKit          2D

 10 10  0  0  0  0  0  0  0  0999 V2000
   20.3004   -2.0471    0.0000 C   0  0  0  0  0  0  0  0  0  0  0  0
   20.2993   -2.8666    0.0000 C   0  0  0  0  0  0  0  0  0  0  0  0
   21.0073   -3.2756    0.0000 C   0  0  0  0  0  0  0  0  0  0  0  0
   21.7170   -2.8661    0.0000 C   0  0  0  0  0  0  0  0  0  0  0  0
   21.7142   -2.0435    0.0000 C   0  0  0  0  0  0  0  0  0  0  0  0
   21.0055   -1.6382    0.0000 C   0  0  0  0  0  0  0  0  0  0  0  0
   21.0031   -0.8210    0.0000 C   0  0  0  0  0  0  0  0  0  0  0  0
   21.7096   -0.4103    0.0000 O   0  0  0  0  0  0  0  0  0  0  0  0
   22.4253   -3.2736    0.0000 C   0  0  0  0  0  0  0  0  0  0  0  0
   22.4266   -4.0908    0.0000 O   0  0  0  0  0  0  0  0  0  0  0  0
  1  2  2  0
  2  3  1  0
  3  4  2  0
  4  5  1  0
  5  6  2  0
  6  1  1  0
  6  7  1  0
  7  8  2  0
  4  9  1  0
  9 10  2  0
M  END

> <chembl_id>
CHEMBL2289228

> <chembl_pref_name>
ISOPHTHALIC DICARBOXALDEHYDE

$$$$

     RDKit          2D

  7  7  0  0  0  0  0  0  0  0999 V2000
    1.8159   -0.6211    0.0000 O   0  0  0  0  0  0  0  0  0  0  0  0
    1.5610   -1.4057    0.0000 C   0  0  0  0  0  0  0  0  0  0  0  0
    1.1485   -0.1362    0.0000 C   0  0  0  0  0  0  0  0  0  0  0  0
    0.7360   -1.4057    0.0000 C   0  0  0  0  0  0  0  0  0  0  0  0
    0.4810   -0.6211    0.0000 C   0  0  0  0  0  0  0  0  0  0  0  0
    2.0459   -2.0732    0.0000 C   0  0  0  0  0  0  0  0  0  0  0  0
    1.1485    0.6888    0.0000 C   0  0  0  0  0  0  0  0  0  0  0  0
  1  2  1  0
  1  3  1  0
  2  4  2  0
  2  6  1  0
  3  5  2  0
  3  7  1  0
  4  5  1  0
M  END

> <chembl_id>
CHEMBL1416448

> <chembl_pref_name>
None

$$$$

     RDKit          2D

  9  9  0  0  0  0  0  0  0  0999 V2000
    1.5184   -0.9262    0.0000 C   0  0  0  0  0  0  0  0  0  0  0  0
    2.2329    0.3113    0.0000 C   0  0  0  0  0  0  0  0  0  0  0  0
    1.5184   -0.1012    0.0000 C   0  0  0  0  0  0  0  0  0  0  0  0
    2.2329   -1.3387    0.0000 C   0  0  0  0  0  0  0  0  0  0  0  0
    2.9473   -0.1012    0.0000 C   0  0  0  0  0  0  0  0  0  0  0  0
    2.9473   -0.9262    0.0000 C   0  0  0  0  0  0  0  0  0  0  0  0
    0.8039   -1.3387    0.0000 C   0  0  0  0  0  0  0  0  0  0  0  0
    2.2329    1.1363    0.0000 C   0  0  0  0  0  0  0  0  0  0  0  0
    0.8039   -2.1637    0.0000 C   0  0  0  0  0  0  0  0  0  0  0  0
  1  3  2  0
  1  4  1  0
  1  7  1  0
  2  3  1  0
  2  5  2  0
  2  8  1  0
  4  6  2  0
  5  6  1  0
  7  9  2  0
M  END

> <chembl_id>
CHEMBL1381662

> <chembl_pref_name>
None

$$$$

     RDKit          2D

 11 11  0  0  0  0  0  0  0  0999 V2000
    1.9933   -0.7135    0.0000 N   0  0  0  0  0  0  0  0  0  0  0  0
    1.2397   -0.7135    0.0000 N   0  0  0  0  0  0  0  0  0  0  0  0
    0.4147   -0.7135    0.0000 N   0  0  0  0  0  0  0  0  0  0  0  0
    2.8138   -0.7135    0.0000 C   0  0  0  0  0  0  0  0  0  0  0  0
    3.2286    0.0000    0.0000 C   0  0  0  0  0  0  0  0  0  0  0  0
    3.2286   -1.4270    0.0000 C   0  0  0  0  0  0  0  0  0  0  0  0
    4.0536    0.0000    0.0000 C   0  0  0  0  0  0  0  0  0  0  0  0
    4.0536   -1.4270    0.0000 C   0  0  0  0  0  0  0  0  0  0  0  0
    4.4594   -0.7135    0.0000 C   0  0  0  0  0  0  0  0  0  0  0  0
    0.0000   -1.4270    0.0000 C   0  0  0  0  0  0  0  0  0  0  0  0
    0.0000    0.0000    0.0000 C   0  0  0  0  0  0  0  0  0  0  0  0
  1  2  2  3
  1  4  1  0
  2  3  1  0
  3 10  1  0
  3 11  1  0
  4  5  2  0
  4  6  1  0
  5  7  1  0
  6  8  2  0
  7  9  2  0
  8  9  1  0
M  END

> <chembl_id>
CHEMBL3188118

> <chembl_pref_name>
None

$$$$

     RDKit          2D

  9 10  0  0  0  0  0  0  0  0999 V2000
    5.1667   -1.8042    0.0000 C   0  0  0  0  0  0  0  0  0  0  0  0
    5.1667   -2.6292    0.0000 C   0  0  0  0  0  0  0  0  0  0  0  0
    6.4417   -2.2125    0.0000 C   0  0  0  0  0  0  0  0  0  0  0  0
    5.9542   -2.8792    0.0000 C   0  0  0  0  0  0  0  0  0  0  0  0
    5.9500   -1.5417    0.0000 C   0  0  0  0  0  0  0  0  0  0  0  0
    4.4500   -1.3917    0.0000 C   0  0  0  0  0  0  0  0  0  0  0  0
    4.4500   -3.0500    0.0000 C   0  0  0  0  0  0  0  0  0  0  0  0
    3.7375   -2.6375    0.0000 C   0  0  0  0  0  0  0  0  0  0  0  0
    3.7375   -1.8125    0.0000 C   0  0  0  0  0  0  0  0  0  0  0  0
  2  1  1  0
  3  5  1  0
  4  2  1  0
  5  1  1  0
  6  1  2  0
  7  2  2  0
  8  9  2  0
  9  6  1  0
  3  4  1  0
  7  8  1  0
M  END

> <chembl_id>
CHEMBL370687

> <chembl_pref_name>
None

$$$$

     RDKit          2D

  8  8  0  0  0  0  0  0  0  0999 V2000
    3.7009    0.8978    0.0000 C   0  0  0  0  0  0  0  0  0  0  0  0
    4.1150    1.6113    0.0000 C   0  0  0  0  0  0  0  0  0  0  0  0
    2.8773    0.8978    0.0000 C   0  0  0  0  0  0  0  0  0  0  0  0
    2.3890    0.2302    0.0000 C   0  0  0  0  0  0  0  0  0  0  0  0
    1.6049    0.4883    0.0000 C   0  0  0  0  0  0  0  0  0  0  0  0
    1.6049    1.3119    0.0000 C   0  0  0  0  0  0  0  0  0  0  0  0
    2.3890    1.5608    0.0000 S   0  0  0  0  0  0  0  0  0  0  0  0
    4.1150    0.1842    0.0000 O   0  0  0  0  0  0  0  0  0  0  0  0
  1  2  1  0
  3  4  2  0
  4  5  1  0
  5  6  2  0
  6  7  1  0
  3  7  1  0
  1  3  1  0
  1  8  2  0
M  END

> <chembl_id>
CHEMBL401911

> <chembl_pref_name>
None

$$$$

     RDKit          2D

 10 10  0  0  0  0  0  0  0  0999 V2000
   -4.3458   -2.8292    0.0000 C   0  0  0  0  0  0  0  0  0  0  0  0
   -4.9125   -2.6417    0.0000 N   0  0  0  0  0  0  0  0  0  0  0  0
   -3.8583   -2.4792    0.0000 O   0  0  0  0  0  0  0  0  0  0  0  0
   -4.1583   -3.4042    0.0000 C   0  0  0  0  0  0  0  0  0  0  0  0
   -3.3750   -2.8417    0.0000 C   0  0  0  0  0  0  0  0  0  0  0  0
   -3.5625   -3.4042    0.0000 C   0  0  0  0  0  0  0  0  0  0  0  0
   -5.0333   -2.0542    0.0000 O   0  0  0  0  0  0  0  0  0  0  0  0
   -5.3583   -3.0417    0.0000 O   0  0  0  0  0  0  0  0  0  0  0  0
   -2.8000   -2.6625    0.0000 C   0  0  0  0  0  0  0  0  0  0  0  0
   -2.6708   -2.0750    0.0000 O   0  0  0  0  0  0  0  0  0  0  0  0
  2  1  1  0
  3  1  1  0
  4  1  2  0
  5  3  1  0
  6  4  1  0
  7  2  1  0
  8  2  2  0
  9  5  1  0
 10  9  2  0
  6  5  2  0
M  CHG  2   2   1   7  -1
M  END

> <chembl_id>
CHEMBL351937

> <chembl_pref_name>
None

$$$$

     RDKit          2D

  7  6  0  0  0  0  0  0  0  0999 V2000
    1.6660    0.6910    0.0000 Cl  0  0  0  0  0  0  0  0  0  0  0  0
   -1.6660   -0.4360    0.0000 N   0  0  0  0  0  0  0  0  0  0  0  0
   -1.6660    0.3890    0.0000 N   0  0  0  0  0  0  0  0  0  0  0  0
   -0.8814    0.6439    0.0000 C   0  0  0  0  0  0  0  0  0  0  0  0
   -0.3965   -0.0235    0.0000 C   0  0  0  0  0  0  0  0  0  0  0  0
   -0.8814   -0.6910    0.0000 C   0  0  0  0  0  0  0  0  0  0  0  0
    0.4285   -0.0235    0.0000 C   0  0  0  0  0  0  0  0  0  0  0  0
  2  3  1  0
  3  4  2  0
  4  5  1  0
  5  6  2  0
  2  6  1  0
  5  7  1  0
M  END

> <chembl_id>
CHEMBL1256285

> <chembl_pref_name>
None

$$$$

     RDKit          2D

 10 10  0  0  0  0  0  0  0  0999 V2000
    4.6417   -2.9250    0.0000 N   0  0  0  0  0  0  0  0  0  0  0  0
    5.3542   -4.1667    0.0000 C   0  0  0  0  0  0  0  0  0  0  0  0
    5.3542   -4.9917    0.0000 C   0  0  0  0  0  0  0  0  0  0  0  0
    4.6375   -3.7542    0.0000 C   0  0  0  0  0  0  0  0  0  0  0  0
    4.6375   -5.4000    0.0000 O   0  0  0  0  0  0  0  0  0  0  0  0
    6.0667   -5.4042    0.0000 N   0  0  0  0  0  0  0  0  0  0  0  0
    5.3500   -2.5125    0.0000 C   0  0  0  0  0  0  0  0  0  0  0  0
    3.9250   -2.5125    0.0000 C   0  0  0  0  0  0  0  0  0  0  0  0
    6.0708   -3.7542    0.0000 C   0  0  0  0  0  0  0  0  0  0  0  0
    6.0667   -2.9208    0.0000 C   0  0  0  0  0  0  0  0  0  0  0  0
  2  4  1  0
  3  2  1  0
  4  1  2  0
  5  3  2  0
  6  3  1  0
  7  1  1  0
  8  1  1  0
  9  2  2  0
 10  7  2  0
 10  9  1  0
M  CHG  1   1   1
M  END

> <chembl_id>
CHEMBL71733

> <chembl_pref_name>
TRIGONELLAMIDE

$$$$

     RDKit          2D

 10 10  0  0  0  0  0  0  0  0999 V2000
    7.2667   -5.5917    0.0000 N   0  0  0  0  0  0  0  0  0  0  0  0
    6.7875   -5.9542    0.0000 C   0  0  0  0  0  0  0  0  0  0  0  0
    7.5792   -6.5125    0.0000 N   0  0  0  0  0  0  0  0  0  0  0  0
    7.7542   -5.9375    0.0000 C   0  0  0  0  0  0  0  0  0  0  0  0
    6.9875   -6.5167    0.0000 O   0  0  0  0  0  0  0  0  0  0  0  0
    6.2167   -5.7792    0.0000 C   0  0  0  0  0  0  0  0  0  0  0  0
    6.0792   -5.1917    0.0000 N   0  0  0  0  0  0  0  0  0  0  0  0
    8.3250   -5.7417    0.0000 C   0  0  0  0  0  0  0  0  0  0  0  0
    5.5042   -5.0167    0.0000 C   0  0  0  0  0  0  0  0  0  0  0  0
    6.5167   -4.7875    0.0000 C   0  0  0  0  0  0  0  0  0  0  0  0
  2  1  2  0
  3  4  2  0
  4  1  1  0
  5  2  1  0
  6  2  1  0
  7  6  1  0
  8  4  1  0
  9  7  1  0
 10  7  1  0
  5  3  1  0
M  END

> <chembl_id>
CHEMBL88572

> <chembl_pref_name>
None

$$$$

     RDKit          2D

  8  8  0  0  0  0  0  0  0  0999 V2000
    6.7950   -7.3044    0.0000 C   0  0  0  0  0  0  0  0  0  0  0  0
    6.7938   -8.1314    0.0000 C   0  0  0  0  0  0  0  0  0  0  0  0
    7.5082   -8.5440    0.0000 C   0  0  0  0  0  0  0  0  0  0  0  0
    8.2244   -8.1309    0.0000 C   0  0  0  0  0  0  0  0  0  0  0  0
    8.2215   -7.3009    0.0000 C   0  0  0  0  0  0  0  0  0  0  0  0
    7.5064   -6.8919    0.0000 C   0  0  0  0  0  0  0  0  0  0  0  0
    7.5040   -6.0673    0.0000 N   0  0  0  0  0  0  0  0  0  0  0  0
    8.9340   -6.8859    0.0000 F   0  0  0  0  0  0  0  0  0  0  0  0
  4  5  1  0
  2  3  1  0
  5  6  2  0
  6  1  1  0
  1  2  2  0
  6  7  1  0
  3  4  2  0
  5  8  1  0
M  END

> <chembl_id>
CHEMBL195328

> <chembl_pref_name>
None

$$$$

     RDKit          2D

 10 10  0  0  0  0  0  0  0  0999 V2000
    5.4066   -8.5365    0.0000 C   0  0  0  0  0  0  0  0  0  0  0  0
    6.2316   -8.5365    0.0000 C   0  0  0  0  0  0  0  0  0  0  0  0
    6.6483   -7.8248    0.0000 C   0  0  0  0  0  0  0  0  0  0  0  0
    7.4733   -7.8248    0.0000 C   0  0  0  0  0  0  0  0  0  0  0  0
    7.8858   -8.5365    0.0000 C   0  0  0  0  0  0  0  0  0  0  0  0
    7.4733   -9.2523    0.0000 C   0  0  0  0  0  0  0  0  0  0  0  0
    6.6483   -9.2523    0.0000 C   0  0  0  0  0  0  0  0  0  0  0  0
    8.7108   -8.5365    0.0000 C   0  0  0  0  0  0  0  0  0  0  0  0
    9.1233   -7.8248    0.0000 C   0  0  0  0  0  0  0  0  0  0  0  0
    9.1233   -9.2523    0.0000 C   0  0  0  0  0  0  0  0  0  0  0  0
  1  2  1  0
  2  3  1  0
  3  4  2  0
  4  5  1  0
  5  6  2  0
  6  7  1  0
  2  7  2  0
  8  9  1  0
  8 10  1  0
  5  8  1  0
M  END

> <chembl_id>
CHEMBL442915

> <chembl_pref_name>
P-CYMENE

$$$$

     RDKit          2D

  9  9  0  0  0  0  0  0  0  0999 V2000
    3.7920    1.9405    0.0000 C   0  0  0  0  0  0  0  0  0  0  0  0
    3.7908    1.1136    0.0000 N   0  0  0  0  0  0  0  0  0  0  0  0
    4.5053    0.7011    0.0000 N   0  0  0  0  0  0  0  0  0  0  0  0
    5.2212    1.1141    0.0000 C   0  0  0  0  0  0  0  0  0  0  0  0
    5.2183    1.9441    0.0000 C   0  0  0  0  0  0  0  0  0  0  0  0
    4.5035    2.3530    0.0000 C   0  0  0  0  0  0  0  0  0  0  0  0
    5.9323    2.3593    0.0000 C   0  0  0  0  0  0  0  0  0  0  0  0
    6.6479    1.9498    0.0000 O   0  0  0  0  0  0  0  0  0  0  0  0
    5.9293    3.1838    0.0000 O   0  0  0  0  0  0  0  0  0  0  0  0
  4  5  1  0
  2  3  1  0
  5  6  2  0
  6  1  1  0
  1  2  2  0
  3  4  2  0
  7  8  1  0
  7  9  2  0
  5  7  1  0
M  END

> <chembl_id>
CHEMBL394068

> <chembl_pref_name>
None

$$$$

     RDKit          2D

  8  8  0  0  0  0  0  0  0  0999 V2000
   12.2609  -18.7661    0.0000 C   0  0  0  0  0  0  0  0  0  0  0  0
   12.2597  -19.5929    0.0000 C   0  0  0  0  0  0  0  0  0  0  0  0
   12.9741  -20.0055    0.0000 C   0  0  0  0  0  0  0  0  0  0  0  0
   13.6900  -19.5924    0.0000 C   0  0  0  0  0  0  0  0  0  0  0  0
   13.6871  -18.7625    0.0000 C   0  0  0  0  0  0  0  0  0  0  0  0
   12.9723  -18.3537    0.0000 C   0  0  0  0  0  0  0  0  0  0  0  0
   12.9698  -17.5293    0.0000 O   0  0  0  0  0  0  0  0  0  0  0  0
   14.4046  -20.0035    0.0000 C   0  0  0  0  0  0  0  0  0  0  0  0
  4  5  1  0
  5  6  2  0
  6  1  1  0
  2  3  1  0
  6  7  1  0
  4  8  1  0
  3  4  2  0
  1  2  2  0
M  END

> <chembl_id>
CHEMBL298312

> <chembl_pref_name>
METACRESOL

$$$$

     RDKit          2D

 11 12  0  0  0  0  0  0  0  0999 V2000
    2.7886   -1.6756    0.0000 C   0  0  0  0  0  0  0  0  0  0  0  0
    2.7874   -2.4952    0.0000 C   0  0  0  0  0  0  0  0  0  0  0  0
    3.4955   -2.9041    0.0000 C   0  0  0  0  0  0  0  0  0  0  0  0
    3.4937   -1.2668    0.0000 C   0  0  0  0  0  0  0  0  0  0  0  0
    4.2023   -1.6720    0.0000 C   0  0  0  0  0  0  0  0  0  0  0  0
    4.2026   -2.4952    0.0000 C   0  0  0  0  0  0  0  0  0  0  0  0
    4.9855   -2.7494    0.0000 C   0  0  0  0  0  0  0  0  0  0  0  0
    5.4693   -2.0832    0.0000 C   0  0  0  0  0  0  0  0  0  0  0  0
    4.9851   -1.4175    0.0000 N   0  0  0  0  0  0  0  0  0  0  0  0
    6.2865   -2.0829    0.0000 O   0  0  0  0  0  0  0  0  0  0  0  0
    2.0794   -2.9032    0.0000 O   0  0  0  0  0  0  0  0  0  0  0  0
  1  2  2  0
  2  3  1  0
  3  6  2  0
  5  4  2  0
  4  1  1  0
  5  6  1  0
  6  7  1  0
  7  8  1  0
  8  9  1  0
  9  5  1  0
  8 10  2  0
  2 11  1  0
M  END

> <chembl_id>
CHEMBL3093623

> <chembl_pref_name>
None

$$$$

     RDKit          2D

  8  8  0  0  0  0  0  0  0  0999 V2000
    1.0125   -0.7917    0.0000 N   0  0  0  0  0  0  0  0  0  0  0  0
    1.0125   -1.9917    0.0000 C   0  0  0  0  0  0  0  0  0  0  0  0
    1.5292   -1.0917    0.0000 C   0  0  0  0  0  0  0  0  0  0  0  0
    0.4917   -1.0917    0.0000 C   0  0  0  0  0  0  0  0  0  0  0  0
    1.0125   -2.5917    0.0000 C   0  0  0  0  0  0  0  0  0  0  0  0
    1.5292   -1.6917    0.0000 C   0  0  0  0  0  0  0  0  0  0  0  0
    0.4917   -1.6917    0.0000 C   0  0  0  0  0  0  0  0  0  0  0  0
    0.4917   -2.8917    0.0000 C   0  0  0  0  0  0  0  0  0  0  0  0
  2  7  1  0
  3  1  2  0
  4  1  1  0
  5  2  1  0
  6  3  1  0
  7  4  2  0
  8  5  1  0
  6  2  2  0
M  END

> <chembl_id>
CHEMBL22977

> <chembl_pref_name>
None

$$$$

     RDKit          2D

 11 12  0  0  1  0  0  0  0  0999 V2000
    4.2010   -3.2956    0.0000 C   0  0  0  0  0  0  0  0  0  0  0  0
    4.9531   -1.9978    0.0000 C   0  0  0  0  0  0  0  0  0  0  0  0
    3.9511   -0.8815    0.0000 N   0  0  0  0  0  0  0  0  0  0  0  0
    2.5987   -1.5004    0.0000 C   0  0  0  0  0  0  0  0  0  0  0  0
    2.7343   -2.9815    0.0000 C   0  0  0  0  0  0  0  0  0  0  0  0
    1.2990   -0.7500    0.0000 C   0  0  0  0  0  0  0  0  0  0  0  0
    1.2990    0.7500    0.0000 C   0  0  0  0  0  0  0  0  0  0  0  0
    0.0000    1.5000    0.0000 C   0  0  0  0  0  0  0  0  0  0  0  0
   -1.2990    0.7500    0.0000 C   0  0  0  0  0  0  0  0  0  0  0  0
   -1.2990   -0.7500    0.0000 N   0  0  0  0  0  0  0  0  0  0  0  0
    0.0000   -1.5000    0.0000 C   0  0  0  0  0  0  0  0  0  0  0  0
  1  2  1  0
  2  3  1  0
  3  4  1  0
  4  5  1  0
  5  1  1  0
  4  6  1  1
  6  7  2  0
  7  8  1  0
  8  9  2  0
  9 10  1  0
 10 11  2  0
 11  6  1  0
M  END

> <chembl_id>
CHEMBL6200

> <chembl_pref_name>
None

$$$$

     RDKit          2D

 10 10  0  0  0  0  0  0  0  0999 V2000
    2.5973   -1.5031    0.0000 C   0  0  0  0  0  0  0  0  0  0  0  0
    1.2990   -0.7500    0.0000 C   0  0  0  0  0  0  0  0  0  0  0  0
    1.2990    0.7500    0.0000 C   0  0  0  0  0  0  0  0  0  0  0  0
    0.0000    1.5000    0.0000 C   0  0  0  0  0  0  0  0  0  0  0  0
   -1.2990    0.7500    0.0000 C   0  0  0  0  0  0  0  0  0  0  0  0
   -1.2990   -0.7500    0.0000 C   0  0  0  0  0  0  0  0  0  0  0  0
    0.0000   -1.5000    0.0000 C   0  0  0  0  0  0  0  0  0  0  0  0
    0.0000    2.7000    0.0000 O   0  0  0  0  0  0  0  0  0  0  0  0
    2.3383    1.3500    0.0000 O   0  0  0  0  0  0  0  0  0  0  0  0
    2.5956   -2.7031    0.0000 O   0  0  0  0  0  0  0  0  0  0  0  0
  1  2  1  0
  2  3  1  0
  3  4  2  0
  4  5  1  0
  5  6  2  0
  6  7  1  0
  2  7  2  0
  4  8  1  0
  3  9  1  0
  1 10  1  0
M  END

> <chembl_id>
CHEMBL3787213

> <chembl_pref_name>
None

$$$$

     RDKit          2D

 10 10  0  0  0  0  0  0  0  0999 V2000
   -0.3954   -1.4741    0.0000 C   0  0  0  0  0  0  0  0  0  0  0  0
    0.2721   -0.9892    0.0000 N   0  0  0  0  0  0  0  0  0  0  0  0
    0.0171   -0.2046    0.0000 C   0  0  0  0  0  0  0  0  0  0  0  0
   -0.8079   -0.2046    0.0000 C   0  0  0  0  0  0  0  0  0  0  0  0
   -1.0629   -0.9892    0.0000 N   0  0  0  0  0  0  0  0  0  0  0  0
    0.4651    0.4882    0.0000 C   0  0  0  0  0  0  0  0  0  0  0  0
    1.2890    0.4467    0.0000 C   0  0  0  0  0  0  0  0  0  0  0  0
    1.7370    1.1394    0.0000 O   0  0  0  0  0  0  0  0  0  0  0  0
    1.6650   -0.2877    0.0000 O   0  0  0  0  0  0  0  0  0  0  0  0
   -0.3954   -2.2991    0.0000 C   0  0  0  0  0  0  0  0  0  0  0  0
  2  3  1  0
  7  8  2  0
  1  2  2  0
  7  9  1  0
  3  4  2  0
  1 10  1  0
  5  1  1  0
  3  6  1  0
  4  5  1  0
  6  7  1  0
M  END

> <chembl_id>
CHEMBL243723

> <chembl_pref_name>
None

$$$$

     RDKit          2D

  9  9  0  0  0  0  0  0  0  0999 V2000
    3.3792   -4.6500    0.0000 N   0  0  0  0  0  0  0  0  0  0  0  0
    2.6667   -5.0625    0.0000 O   0  0  0  0  0  0  0  0  0  0  0  0
    3.3792   -3.8250    0.0000 C   0  0  0  0  0  0  0  0  0  0  0  0
    3.3792   -2.1667    0.0000 C   0  0  0  0  0  0  0  0  0  0  0  0
    4.1000   -3.4125    0.0000 C   0  0  0  0  0  0  0  0  0  0  0  0
    2.6667   -3.4125    0.0000 C   0  0  0  0  0  0  0  0  0  0  0  0
    4.1000   -2.5792    0.0000 C   0  0  0  0  0  0  0  0  0  0  0  0
    2.6667   -2.5875    0.0000 C   0  0  0  0  0  0  0  0  0  0  0  0
    3.3792   -1.3417    0.0000 O   0  0  0  0  0  0  0  0  0  0  0  0
  2  1  2  0
  3  1  1  0
  4  8  1  0
  5  3  2  0
  6  3  1  0
  7  5  1  0
  8  6  2  0
  9  4  1  0
  4  7  2  0
M  END

> <chembl_id>
CHEMBL104353

> <chembl_pref_name>
None

$$$$

     RDKit          2D

 11 12  0  0  0  0  0  0  0  0999 V2000
   -0.4208   -1.6500    0.0000 C   0  0  0  0  0  0  0  0  0  0  0  0
    0.5667   -0.5542    0.0000 N   0  0  0  0  0  0  0  0  0  0  0  0
   -1.1375   -2.8917    0.0000 N   0  0  0  0  0  0  0  0  0  0  0  0
   -1.1375   -1.2417    0.0000 C   0  0  0  0  0  0  0  0  0  0  0  0
    0.3375   -1.3417    0.0000 C   0  0  0  0  0  0  0  0  0  0  0  0
   -0.4208   -2.4792    0.0000 C   0  0  0  0  0  0  0  0  0  0  0  0
    0.1000    0.1125    0.0000 C   0  0  0  0  0  0  0  0  0  0  0  0
   -1.8500   -2.4792    0.0000 C   0  0  0  0  0  0  0  0  0  0  0  0
   -1.8500   -1.6542    0.0000 C   0  0  0  0  0  0  0  0  0  0  0  0
   -1.2625   -0.4375    0.0000 C   0  0  0  0  0  0  0  0  0  0  0  0
   -0.7125    0.1708    0.0000 C   0  0  0  0  0  0  0  0  0  0  0  0
  2  5  1  0
  3  6  2  0
  4  1  2  0
  5  1  1  0
  6  1  1  0
  7  2  1  0
  8  3  1  0
  9  4  1  0
 10  4  1  0
 11 10  1  0
  9  8  2  0
 11  7  1  0
M  END

> <chembl_id>
CHEMBL292813

> <chembl_pref_name>
None

$$$$

     RDKit          2D

  9  9  0  0  0  0  0  0  0  0999 V2000
    3.9500   -1.5292    0.0000 C   0  0  0  0  0  0  0  0  0  0  0  0
    3.1250   -1.5792    0.0000 N   0  0  0  0  0  0  0  0  0  0  0  0
    2.3042   -1.6250    0.0000 N   0  0  0  0  0  0  0  0  0  0  0  0
    4.3917   -2.2250    0.0000 C   0  0  0  0  0  0  0  0  0  0  0  0
    4.3125   -0.8000    0.0000 C   0  0  0  0  0  0  0  0  0  0  0  0
    5.2167   -2.1792    0.0000 C   0  0  0  0  0  0  0  0  0  0  0  0
    5.1375   -0.7500    0.0000 C   0  0  0  0  0  0  0  0  0  0  0  0
    5.5917   -1.4417    0.0000 N   0  0  0  0  0  0  0  0  0  0  0  0
    6.4167   -1.3917    0.0000 O   0  0  0  0  0  0  0  0  0  0  0  0
  1  2  1  0
  2  3  3  0
  1  4  2  0
  1  5  1  0
  4  6  1  0
  5  7  2  0
  6  8  2  0
  7  8  1  0
  9  8  1  0
M  CHG  3   2   1   8   1   9  -1
M  END

> <chembl_id>
CHEMBL303214

> <chembl_pref_name>
None

$$$$

     RDKit          2D

  9  9  0  0  0  0  0  0  0  0999 V2000
    1.1273   -0.8158    0.0000 O   0  0  0  0  0  0  0  0  0  0  0  0
   -0.3017    1.6592    0.0000 O   0  0  0  0  0  0  0  0  0  0  0  0
    0.4128    0.4217    0.0000 N   0  0  0  0  0  0  0  0  0  0  0  0
   -1.0161    0.4217    0.0000 N   0  0  0  0  0  0  0  0  0  0  0  0
   -1.0161   -0.4033    0.0000 N   0  0  0  0  0  0  0  0  0  0  0  0
    0.4128   -0.4033    0.0000 C   0  0  0  0  0  0  0  0  0  0  0  0
   -0.3017   -0.8158    0.0000 C   0  0  0  0  0  0  0  0  0  0  0  0
   -0.3017    0.8342    0.0000 C   0  0  0  0  0  0  0  0  0  0  0  0
   -0.3017   -1.6408    0.0000 C   0  0  0  0  0  0  0  0  0  0  0  0
  1  6  2  0
  2  8  2  0
  3  6  1  0
  3  8  1  0
  4  5  1  0
  4  8  1  0
  5  7  2  0
  6  7  1  0
  7  9  1  0
M  END

> <chembl_id>
CHEMBL1741493

> <chembl_pref_name>
None

$$$$

     RDKit          2D

  5  5  0  0  0  0  0  0  0  0999 V2000
    0.6774    0.2169    0.0000 C   0  0  0  0  0  0  0  0  0  0  0  0
    0.4225   -0.5678    0.0000 C   0  0  0  0  0  0  0  0  0  0  0  0
   -0.4025   -0.5678    0.0000 C   0  0  0  0  0  0  0  0  0  0  0  0
   -0.6575    0.2169    0.0000 N   0  0  0  0  0  0  0  0  0  0  0  0
    0.0100    0.7018    0.0000 N   0  0  0  0  0  0  0  0  0  0  0  0
  2  1  1  0
  1  5  2  0
  3  2  2  0
  3  4  1  0
  5  4  1  0
M  END

> <chembl_id>
CHEMBL15967

> <chembl_pref_name>
PYRAZOLE

$$$$

     RDKit          2D

 10 10  0  0  0  0  0  0  0  0999 V2000
    9.0542    2.1708    0.0000 C   0  0  0  0  0  0  0  0  0  0  0  0
    9.0542    1.3458    0.0000 C   0  0  0  0  0  0  0  0  0  0  0  0
    9.7662    0.9375    0.0000 O   0  0  0  0  0  0  0  0  0  0  0  0
   10.4782    1.3458    0.0000 C   0  0  0  0  0  0  0  0  0  0  0  0
   10.4782    2.1708    0.0000 C   0  0  0  0  0  0  0  0  0  0  0  0
    9.7662    2.5875    0.0000 C   0  0  0  0  0  0  0  0  0  0  0  0
    8.3403    0.9323    0.0000 C   0  0  0  0  0  0  0  0  0  0  0  0
    9.7662    3.4125    0.0000 C   0  0  0  0  0  0  0  0  0  0  0  0
   11.1921    0.9323    0.0000 N   0  0  0  0  0  0  0  0  0  0  0  0
   11.9071    1.3438    0.0000 O   0  0  0  0  0  0  0  0  0  0  0  0
  3  4  1  0
  4  5  1  0
  5  6  2  0
  2  7  1  0
  1  2  2  0
  6  8  1  0
  1  6  1  0
  4  9  2  0
  2  3  1  0
  9 10  1  0
M  END

> <chembl_id>
CHEMBL1956578

> <chembl_pref_name>
None

$$$$

     RDKit          2D

 10 10  0  0  0  0  0  0  0  0999 V2000
   21.6266  -10.9364    0.0000 C   0  0  0  0  0  0  0  0  0  0  0  0
   22.3535  -10.5462    0.0000 C   0  0  0  0  0  0  0  0  0  0  0  0
   22.3780   -9.7233    0.0000 C   0  0  0  0  0  0  0  0  0  0  0  0
   21.6762   -9.2899    0.0000 C   0  0  0  0  0  0  0  0  0  0  0  0
   20.9484   -9.6851    0.0000 C   0  0  0  0  0  0  0  0  0  0  0  0
   20.9276  -10.5067    0.0000 C   0  0  0  0  0  0  0  0  0  0  0  0
   21.6023  -11.7668    0.0000 N   0  0  0  0  0  0  0  0  0  0  0  0
   21.6994   -8.4596    0.0000 C   0  0  0  0  0  0  0  0  0  0  0  0
   20.9919   -8.0243    0.0000 O   0  0  0  0  0  0  0  0  0  0  0  0
   22.4301   -8.0645    0.0000 C   0  0  0  0  0  0  0  0  0  0  0  0
  1  2  2  0
  2  3  1  0
  3  4  2  0
  4  5  1  0
  5  6  2  0
  6  1  1  0
  1  7  1  0
  4  8  1  0
  8  9  2  0
  8 10  1  0
M  END

> <chembl_id>
CHEMBL3278329

> <chembl_pref_name>
None

$$$$

     RDKit          2D

 10 10  0  0  0  0  0  0  0  0999 V2000
    0.3892   -0.0668    0.0000 O   0  0  0  0  0  0  0  0  0  0  0  0
   -0.9927    1.6556    0.0000 O   0  0  0  0  0  0  0  0  0  0  0  0
    0.6192   -1.5189    0.0000 N   0  0  0  0  0  0  0  0  0  0  0  0
    0.1343   -0.8514    0.0000 C   0  0  0  0  0  0  0  0  0  0  0  0
   -0.2782    0.4181    0.0000 C   0  0  0  0  0  0  0  0  0  0  0  0
   -0.6907   -0.8514    0.0000 C   0  0  0  0  0  0  0  0  0  0  0  0
   -0.9457   -0.0668    0.0000 C   0  0  0  0  0  0  0  0  0  0  0  0
   -0.2782    1.2431    0.0000 C   0  0  0  0  0  0  0  0  0  0  0  0
    1.4397   -1.4326    0.0000 C   0  0  0  0  0  0  0  0  0  0  0  0
    0.2836   -2.2725    0.0000 C   0  0  0  0  0  0  0  0  0  0  0  0
  1  4  1  0
  1  5  1  0
  2  8  2  0
  3  4  1  0
  3  9  1  0
  3 10  1  0
  4  6  2  0
  5  7  2  0
  5  8  1  0
  6  7  1  0
M  END

> <chembl_id>
CHEMBL1535009

> <chembl_pref_name>
None

$$$$

     RDKit          2D

 10 10  0  0  0  0  0  0  0  0999 V2000
    0.7596   -1.6452    0.0000 O   0  0  0  0  0  0  0  0  0  0  0  0
    0.0451   -1.2327    0.0000 C   0  0  0  0  0  0  0  0  0  0  0  0
   -0.6694   -1.6452    0.0000 O   0  0  0  0  0  0  0  0  0  0  0  0
    0.0451   -0.4077    0.0000 C   0  0  0  0  0  0  0  0  0  0  0  0
   -0.6694    0.0048    0.0000 C   0  0  0  0  0  0  0  0  0  0  0  0
   -0.6694    0.8298    0.0000 C   0  0  0  0  0  0  0  0  0  0  0  0
    0.0451    1.2423    0.0000 C   0  0  0  0  0  0  0  0  0  0  0  0
    0.0451    2.0673    0.0000 C   0  0  0  0  0  0  0  0  0  0  0  0
    0.7596    0.8298    0.0000 C   0  0  0  0  0  0  0  0  0  0  0  0
    0.7596    0.0048    0.0000 C   0  0  0  0  0  0  0  0  0  0  0  0
  2  1  1  0
  2  3  2  0
  4  2  1  0
  4  5  1  0
  4 10  2  0
  5  6  2  0
  6  7  1  0
  7  8  1  0
  7  9  2  0
  9 10  1  0
M  END

> <chembl_id>
CHEMBL21708

> <chembl_pref_name>
4-METHYLBENZOIC ACID

$$$$

     RDKit          2D

 10 10  0  0  0  0  0  0  0  0999 V2000
    2.2167    0.4583    0.0000 N   0  0  0  0  0  0  0  0  0  0  0  0
    1.8042   -0.8125    0.0000 N   0  0  0  0  0  0  0  0  0  0  0  0
    2.4667   -0.3292    0.0000 C   0  0  0  0  0  0  0  0  0  0  0  0
    1.0875   -2.0500    0.0000 C   0  0  0  0  0  0  0  0  0  0  0  0
    1.3917    0.4583    0.0000 C   0  0  0  0  0  0  0  0  0  0  0  0
    1.1292   -0.3292    0.0000 C   0  0  0  0  0  0  0  0  0  0  0  0
    1.8042   -1.6375    0.0000 C   0  0  0  0  0  0  0  0  0  0  0  0
    0.3750   -1.6375    0.0000 O   0  0  0  0  0  0  0  0  0  0  0  0
    1.0875   -2.8750    0.0000 O   0  0  0  0  0  0  0  0  0  0  0  0
    0.3750   -3.2875    0.0000 C   0  0  0  0  0  0  0  0  0  0  0  0
  2  3  1  0
  3  1  2  0
  4  7  1  0
  5  1  1  0
  6  5  2  0
  7  2  1  0
  8  4  2  0
  9  4  1  0
 10  9  1  0
  6  2  1  0
M  END

> <chembl_id>
CHEMBL47996

> <chembl_pref_name>
None

$$$$

     RDKit          2D

  9  9  0  0  0  0  0  0  0  0999 V2000
   -1.2858   -1.8979    0.0000 O   0  0  0  0  0  0  0  0  0  0  0  0
    0.1431   -1.0729    0.0000 N   0  0  0  0  0  0  0  0  0  0  0  0
   -1.2858   -1.0729    0.0000 N   0  0  0  0  0  0  0  0  0  0  0  0
   -0.5714   -0.6604    0.0000 C   0  0  0  0  0  0  0  0  0  0  0  0
   -0.5714    0.1646    0.0000 C   0  0  0  0  0  0  0  0  0  0  0  0
    0.1431    0.5771    0.0000 C   0  0  0  0  0  0  0  0  0  0  0  0
    0.8576    0.1646    0.0000 C   0  0  0  0  0  0  0  0  0  0  0  0
    0.8576   -0.6604    0.0000 C   0  0  0  0  0  0  0  0  0  0  0  0
    0.1431    1.4021    0.0000 C   0  0  0  0  0  0  0  0  0  0  0  0
  1  3  2  0
  2  4  1  0
  2  8  2  0
  3  4  1  0
  4  5  2  0
  5  6  1  0
  6  7  2  0
  6  9  1  0
  7  8  1  0
M  END

> <chembl_id>
CHEMBL1730862

> <chembl_pref_name>
None

$$$$

     RDKit          2D

 11 12  0  0  0  0  0  0  0  0999 V2000
    0.5167   -0.7500    0.0000 N   0  0  0  0  0  0  0  0  0  0  0  0
   -0.1958   -0.3375    0.0000 C   0  0  0  0  0  0  0  0  0  0  0  0
    1.2292   -0.3375    0.0000 C   0  0  0  0  0  0  0  0  0  0  0  0
   -0.1958    0.4958    0.0000 C   0  0  0  0  0  0  0  0  0  0  0  0
    0.5167    0.9083    0.0000 C   0  0  0  0  0  0  0  0  0  0  0  0
    1.9417   -0.7500    0.0000 N   0  0  0  0  0  0  0  0  0  0  0  0
    1.2292    0.4958    0.0000 C   0  0  0  0  0  0  0  0  0  0  0  0
   -0.9083   -0.7500    0.0000 C   0  0  0  0  0  0  0  0  0  0  0  0
   -0.9083    0.9083    0.0000 C   0  0  0  0  0  0  0  0  0  0  0  0
   -1.6333   -0.3292    0.0000 C   0  0  0  0  0  0  0  0  0  0  0  0
   -1.6333    0.4958    0.0000 C   0  0  0  0  0  0  0  0  0  0  0  0
  2  1  1  0
  3  1  2  0
  4  2  2  0
  5  7  2  0
  6  3  1  0
  7  3  1  0
  8  2  1  0
  9  4  1  0
 10  8  1  0
 11 10  1  0
  4  5  1  0
  9 11  1  0
M  END

> <chembl_id>
CHEMBL188899

> <chembl_pref_name>
None

$$$$

     RDKit          2D

  8  8  0  0  0  0  0  0  0  0999 V2000
    3.9111   -9.2125    0.0000 C   0  0  0  0  0  0  0  0  0  0  0  0
    3.9099  -10.0398    0.0000 N   0  0  0  0  0  0  0  0  0  0  0  0
    4.6247  -10.4527    0.0000 C   0  0  0  0  0  0  0  0  0  0  0  0
    5.3412  -10.0394    0.0000 C   0  0  0  0  0  0  0  0  0  0  0  0
    5.3383   -9.2088    0.0000 C   0  0  0  0  0  0  0  0  0  0  0  0
    4.6229   -8.7997    0.0000 C   0  0  0  0  0  0  0  0  0  0  0  0
    6.0512   -8.7936    0.0000 C   0  0  0  0  0  0  0  0  0  0  0  0
    6.7625   -8.3750    0.0000 N   0  0  0  0  0  0  0  0  0  0  0  0
  4  5  1  0
  2  3  1  0
  5  6  2  0
  6  1  1  0
  1  2  2  0
  5  7  1  0
  3  4  2  0
  7  8  3  0
M  END

> <chembl_id>
CHEMBL504918

> <chembl_pref_name>
ISONICOTINONITRILE

$$$$

     RDKit          2D

  9  9  0  0  0  0  0  0  0  0999 V2000
    0.8500    0.1083    0.0000 C   0  0  0  0  0  0  0  0  0  0  0  0
    0.1417    0.5250    0.0000 C   0  0  0  0  0  0  0  0  0  0  0  0
   -0.6083    0.2083    0.0000 O   0  0  0  0  0  0  0  0  0  0  0  0
    0.8500   -0.7167    0.0000 O   0  0  0  0  0  0  0  0  0  0  0  0
    0.0625    1.3500    0.0000 C   0  0  0  0  0  0  0  0  0  0  0  0
    1.5625    0.5208    0.0000 N   0  0  0  0  0  0  0  0  0  0  0  0
   -1.1583    0.8208    0.0000 C   0  0  0  0  0  0  0  0  0  0  0  0
   -0.7375    1.5250    0.0000 C   0  0  0  0  0  0  0  0  0  0  0  0
    2.2750    0.1083    0.0000 N   0  0  0  0  0  0  0  0  0  0  0  0
  2  1  1  0
  3  2  1  0
  4  1  2  0
  5  2  2  0
  6  1  1  0
  7  3  1  0
  8  5  1  0
  9  6  1  0
  8  7  2  0
M  END

> <chembl_id>
CHEMBL340492

> <chembl_pref_name>
None

$$$$

     RDKit          2D

  6  6  0  0  0  0  0  0  0  0999 V2000
   -0.0160    0.4562    0.0000 N   0  0  0  0  0  0  0  0  0  0  0  0
    0.6515   -0.0288    0.0000 C   0  0  0  0  0  0  0  0  0  0  0  0
    0.3965   -0.8134    0.0000 N   0  0  0  0  0  0  0  0  0  0  0  0
   -0.4285   -0.8134    0.0000 C   0  0  0  0  0  0  0  0  0  0  0  0
   -0.6834   -0.0288    0.0000 C   0  0  0  0  0  0  0  0  0  0  0  0
   -0.0160    1.2812    0.0000 C   0  0  0  0  0  0  0  0  0  0  0  0
  2  1  1  0
  5  1  1  0
  6  1  1  0
  2  3  2  0
  4  3  1  0
  4  5  2  0
M  END

> <chembl_id>
CHEMBL543

> <chembl_pref_name>
1-METHYLIMIDAZOLE

$$$$

     RDKit          2D

 11 11  0  0  0  0  0  0  0  0999 V2000
   15.5777  -11.7333    0.0000 C   0  0  0  0  0  0  0  0  0  0  0  0
   15.5766  -12.5607    0.0000 C   0  0  0  0  0  0  0  0  0  0  0  0
   16.2914  -12.9735    0.0000 C   0  0  0  0  0  0  0  0  0  0  0  0
   17.0078  -12.5602    0.0000 C   0  0  0  0  0  0  0  0  0  0  0  0
   17.0050  -11.7297    0.0000 C   0  0  0  0  0  0  0  0  0  0  0  0
   16.2896  -11.3205    0.0000 C   0  0  0  0  0  0  0  0  0  0  0  0
   16.2871  -10.4955    0.0000 C   0  0  0  0  0  0  0  0  0  0  0  0
   17.0004  -10.0809    0.0000 O   0  0  0  0  0  0  0  0  0  0  0  0
   15.5714  -10.0852    0.0000 O   0  0  0  0  0  0  0  0  0  0  0  0
   16.2942  -13.7945    0.0000 C   0  0  0  0  0  0  0  0  0  0  0  0
   16.2940  -14.6195    0.0000 N   0  0  0  0  0  0  0  0  0  0  0  0
  5  6  2  0
  6  1  1  0
  2  3  1  0
  6  7  1  0
  7  8  1  0
  3  4  2  0
  7  9  2  0
  1  2  2  0
  4  5  1  0
 10 11  3  0
  3 10  1  0
M  END

> <chembl_id>
CHEMBL101772

> <chembl_pref_name>
None

$$$$

     RDKit          2D

 10 10  0  0  0  0  0  0  0  0999 V2000
    0.1316   -0.5367    0.0000 O   0  0  0  0  0  0  0  0  0  0  0  0
    0.8461   -1.7742    0.0000 O   0  0  0  0  0  0  0  0  0  0  0  0
    1.6076   -2.2591    0.0000 N   0  0  0  0  0  0  0  0  0  0  0  0
    2.6875   -3.0437    0.0000 N   0  0  0  0  0  0  0  0  0  0  0  0
    2.2750   -1.7742    0.0000 C   0  0  0  0  0  0  0  0  0  0  0  0
    2.2750   -0.9492    0.0000 C   0  0  0  0  0  0  0  0  0  0  0  0
    2.9425   -2.2591    0.0000 C   0  0  0  0  0  0  0  0  0  0  0  0
    1.5606   -0.5367    0.0000 C   0  0  0  0  0  0  0  0  0  0  0  0
    1.8625   -3.0437    0.0000 C   0  0  0  0  0  0  0  0  0  0  0  0
    0.8461   -0.9492    0.0000 C   0  0  0  0  0  0  0  0  0  0  0  0
  1 10  2  0
  2 10  1  0
  3  5  1  0
  3  9  2  0
  4  7  1  0
  4  9  1  0
  5  6  1  0
  5  7  2  0
  6  8  2  0
  8 10  1  0
M  END

> <chembl_id>
CHEMBL1316726

> <chembl_pref_name>
CIS-UROCANIC ACID

$$$$

     RDKit          2D

  5  5  0  0  0  0  0  0  0  0999 V2000
    1.5875   -3.7167    0.0000 N   0  0  0  0  0  0  0  0  0  0  0  0
    0.9167   -4.1917    0.0000 C   0  0  0  0  0  0  0  0  0  0  0  0
    2.2542   -4.1917    0.0000 C   0  0  0  0  0  0  0  0  0  0  0  0
    2.0000   -4.9917    0.0000 C   0  0  0  0  0  0  0  0  0  0  0  0
    1.1750   -4.9917    0.0000 C   0  0  0  0  0  0  0  0  0  0  0  0
  2  1  1  0
  3  1  1  0
  4  3  2  0
  5  2  2  0
  5  4  1  0
M  END

> <chembl_id>
CHEMBL16225

> <chembl_pref_name>
PYRROLE

$$$$

     RDKit          2D

  8  8  0  0  0  0  0  0  0  0999 V2000
    0.2395   -1.6500    0.0000 Cl  0  0  0  0  0  0  0  0  0  0  0  0
    0.2395   -0.8250    0.0000 C   0  0  0  0  0  0  0  0  0  0  0  0
   -0.4750   -0.4125    0.0000 C   0  0  0  0  0  0  0  0  0  0  0  0
   -0.4750    0.4125    0.0000 C   0  0  0  0  0  0  0  0  0  0  0  0
    0.2395    0.8250    0.0000 C   0  0  0  0  0  0  0  0  0  0  0  0
    0.2395    1.6500    0.0000 O   0  0  0  0  0  0  0  0  0  0  0  0
    0.9539    0.4125    0.0000 C   0  0  0  0  0  0  0  0  0  0  0  0
    0.9539   -0.4125    0.0000 C   0  0  0  0  0  0  0  0  0  0  0  0
  2  1  1  0
  2  3  2  0
  8  2  1  0
  3  4  1  0
  5  4  2  0
  5  6  1  0
  5  7  1  0
  7  8  2  0
M  END

> <chembl_id>
CHEMBL57053

> <chembl_pref_name>
PARACHLOROPHENOL

$$$$

     RDKit          2D

 11 11  0  0  1  0  0  0  0  0999 V2000
    3.5794    0.0000    0.0000 N   0  0  0  0  0  0  0  0  0  0  0  0
    1.4309   -0.4168    0.0000 C   0  0  0  0  0  0  0  0  0  0  0  0
    2.1485    0.0000    0.0000 C   0  0  0  0  0  0  0  0  0  0  0  0
    2.8661   -0.4168    0.0000 C   0  0  0  0  0  0  0  0  0  0  0  0
    0.7047    0.0000    0.0000 C   0  0  0  0  0  0  0  0  0  0  0  0
    1.4309   -1.2418    0.0000 C   0  0  0  0  0  0  0  0  0  0  0  0
    0.0000   -0.4168    0.0000 C   0  0  0  0  0  0  0  0  0  0  0  0
    0.7047   -1.6500    0.0000 C   0  0  0  0  0  0  0  0  0  0  0  0
    0.0000   -1.2418    0.0000 C   0  0  0  0  0  0  0  0  0  0  0  0
    2.8661   -1.2418    0.0000 C   0  0  0  0  0  0  0  0  0  0  0  0
    4.2969   -0.4168    0.0000 C   0  0  0  0  0  0  0  0  0  0  0  0
  1  4  1  0
  1 11  1  0
  2  3  1  0
  2  5  2  0
  2  6  1  0
  3  4  1  0
  4 10  1  6
  5  7  1  0
  6  8  2  0
  7  9  2  0
  8  9  1  0
M  END

> <chembl_id>
CHEMBL1927030

> <chembl_pref_name>
LEVMETAMFETAMINE

$$$$

     RDKit          2D

 10 10  0  0  0  0  0  0  0  0999 V2000
    4.8125   -8.0167    0.0000 N   0  0  0  0  0  0  0  0  0  0  0  0
    5.4542   -7.5042    0.0000 C   0  0  0  0  0  0  0  0  0  0  0  0
    4.1167   -7.5667    0.0000 C   0  0  0  0  0  0  0  0  0  0  0  0
    5.1625   -6.7292    0.0000 N   0  0  0  0  0  0  0  0  0  0  0  0
    4.3375   -6.7750    0.0000 O   0  0  0  0  0  0  0  0  0  0  0  0
    6.2500   -7.7167    0.0000 O   0  0  0  0  0  0  0  0  0  0  0  0
    3.3500   -7.8625    0.0000 O   0  0  0  0  0  0  0  0  0  0  0  0
    5.6125   -6.0417    0.0000 C   0  0  0  0  0  0  0  0  0  0  0  0
    6.8917   -5.4000    0.0000 N   0  0  0  0  0  0  0  0  0  0  0  0
    6.4375   -6.0917    0.0000 C   0  0  0  0  0  0  0  0  0  0  0  0
  2  1  1  0
  3  1  1  0
  4  2  1  0
  5  3  1  0
  6  2  2  0
  7  3  2  0
  8  4  1  0
  9 10  1  0
 10  8  1  0
  4  5  1  0
M  END

> <chembl_id>
CHEMBL129648

> <chembl_pref_name>
None

$$$$

     RDKit          2D

 10 10  0  0  1  0  0  0  0  0999 V2000
    7.1792   -0.0917    0.0000 C   0  0  0  0  0  0  0  0  0  0  0  0
    6.7792   -0.8167    0.0000 C   0  0  0  0  0  0  0  0  0  0  0  0
    5.9542   -0.8292    0.0000 C   0  0  0  0  0  0  0  0  0  0  0  0
    8.0042   -0.0875    0.0000 C   0  0  0  0  0  0  0  0  0  0  0  0
    7.2000   -1.5292    0.0000 O   0  0  0  0  0  0  0  0  0  0  0  0
    5.5292   -0.1250    0.0000 C   0  0  0  0  0  0  0  0  0  0  0  0
    5.5417   -1.5542    0.0000 C   0  0  0  0  0  0  0  0  0  0  0  0
    4.7042   -0.1292    0.0000 C   0  0  0  0  0  0  0  0  0  0  0  0
    4.7167   -1.5667    0.0000 C   0  0  0  0  0  0  0  0  0  0  0  0
    4.3000   -0.8542    0.0000 C   0  0  0  0  0  0  0  0  0  0  0  0
  2  1  1  0
  3  2  1  0
  4  1  2  0
  2  5  1  6
  6  3  2  0
  7  3  1  0
  8  6  1  0
  9  7  2  0
 10  9  1  0
 10  8  2  0
M  END

> <chembl_id>
CHEMBL325573

> <chembl_pref_name>
None

$$$$

     RDKit          2D

  9  9  0  0  0  0  0  0  0  0999 V2000
    9.4313   -3.6125    0.0000 N   0  0  0  0  0  0  0  0  0  0  0  0
   10.1471   -3.2000    0.0000 C   0  0  0  0  0  0  0  0  0  0  0  0
   10.8629   -3.6125    0.0000 C   0  0  0  0  0  0  0  0  0  0  0  0
   11.5746   -3.2000    0.0000 C   0  0  0  0  0  0  0  0  0  0  0  0
   11.6635   -2.3778    0.0000 C   0  0  0  0  0  0  0  0  0  0  0  0
   12.4695   -2.2054    0.0000 N   0  0  0  0  0  0  0  0  0  0  0  0
   12.8819   -2.9212    0.0000 C   0  0  0  0  0  0  0  0  0  0  0  0
   12.3289   -3.5334    0.0000 N   0  0  0  0  0  0  0  0  0  0  0  0
   13.7022   -3.0084    0.0000 C   0  0  0  0  0  0  0  0  0  0  0  0
  1  2  1  0
  2  3  1  0
  3  4  1  0
  4  5  2  0
  5  6  1  0
  6  7  2  0
  7  8  1  0
  4  8  1  0
  7  9  1  0
M  END

> <chembl_id>
CHEMBL12620

> <chembl_pref_name>
2-METHYLHISTAMINE

$$$$

     RDKit          2D

  7  7  0  0  0  0  0  0  0  0999 V2000
   -0.1423   -1.2257    0.0000 O   0  0  0  0  0  0  0  0  0  0  0  0
    1.2661   -2.6340    0.0000 O   0  0  0  0  0  0  0  0  0  0  0  0
   -1.5506   -2.6340    0.0000 O   0  0  0  0  0  0  0  0  0  0  0  0
   -0.1423   -2.0507    0.0000 C   0  0  0  0  0  0  0  0  0  0  0  0
    0.4411   -2.6340    0.0000 C   0  0  0  0  0  0  0  0  0  0  0  0
   -0.7256   -2.6340    0.0000 C   0  0  0  0  0  0  0  0  0  0  0  0
   -0.1423   -3.2174    0.0000 C   0  0  0  0  0  0  0  0  0  0  0  0
  1  4  2  0
  2  5  2  0
  3  6  1  0
  4  5  1  0
  4  6  1  0
  5  7  1  0
  6  7  2  0
M  END

> <chembl_id>
CHEMBL1977616

> <chembl_pref_name>
None

$$$$

     RDKit          2D

  8  8  0  0  0  0  0  0  0  0999 V2000
   19.0335   -9.1148    0.0000 C   0  0  0  0  0  0  0  0  0  0  0  0
   19.0323   -9.9432    0.0000 N   0  0  0  0  0  0  0  0  0  0  0  0
   19.7480  -10.3566    0.0000 C   0  0  0  0  0  0  0  0  0  0  0  0
   20.4652   -9.9427    0.0000 N   0  0  0  0  0  0  0  0  0  0  0  0
   20.4623   -9.1112    0.0000 C   0  0  0  0  0  0  0  0  0  0  0  0
   19.7462   -8.7017    0.0000 C   0  0  0  0  0  0  0  0  0  0  0  0
   19.7478  -11.1825    0.0000 O   0  0  0  0  0  0  0  0  0  0  0  0
   21.1761   -8.6956    0.0000 S   0  0  0  0  0  0  0  0  0  0  0  0
  4  5  1  0
  2  3  1  0
  5  6  2  0
  6  1  1  0
  1  2  2  0
  3  7  1  0
  3  4  2  0
  5  8  1  0
M  END

> <chembl_id>
CHEMBL1650608

> <chembl_pref_name>
None

$$$$

     RDKit          2D

 10 10  0  0  0  0  0  0  0  0999 V2000
    1.3167    1.5083    0.0000 N   0  0  0  0  0  0  0  0  0  0  0  0
    1.3167    0.9083    0.0000 C   0  0  0  0  0  0  0  0  0  0  0  0
    1.8375    1.8083    0.0000 O   0  0  0  0  0  0  0  0  0  0  0  0
    0.8000    1.8083    0.0000 O   0  0  0  0  0  0  0  0  0  0  0  0
    0.8042    0.6083    0.0000 C   0  0  0  0  0  0  0  0  0  0  0  0
    1.8417    0.6083    0.0000 C   0  0  0  0  0  0  0  0  0  0  0  0
    0.2875    0.9083    0.0000 C   0  0  0  0  0  0  0  0  0  0  0  0
    0.8042    0.0083    0.0000 C   0  0  0  0  0  0  0  0  0  0  0  0
    1.8417    0.0083    0.0000 C   0  0  0  0  0  0  0  0  0  0  0  0
    1.3250   -0.2917    0.0000 C   0  0  0  0  0  0  0  0  0  0  0  0
  2  1  1  0
  3  1  1  0
  4  1  2  0
  5  2  1  0
  6  2  2  0
  7  5  1  0
  8  5  2  0
  9  6  1  0
 10  9  2  0
 10  8  1  0
M  CHG  2   1   1   3  -1
M  END

> <chembl_id>
CHEMBL47047

> <chembl_pref_name>
None

$$$$

     RDKit          2D

 11 12  0  0  0  0  0  0  0  0999 V2000
    6.6042   -3.2125    0.0000 N   0  0  0  0  0  0  0  0  0  0  0  0
    6.0042   -3.2125    0.0000 C   0  0  0  0  0  0  0  0  0  0  0  0
    6.0042   -2.6125    0.0000 C   0  0  0  0  0  0  0  0  0  0  0  0
    6.6042   -2.6125    0.0000 C   0  0  0  0  0  0  0  0  0  0  0  0
    5.4792   -3.5167    0.0000 C   0  0  0  0  0  0  0  0  0  0  0  0
    4.9542   -4.4250    0.0000 N   0  0  0  0  0  0  0  0  0  0  0  0
    5.4792   -4.1167    0.0000 C   0  0  0  0  0  0  0  0  0  0  0  0
    7.0167   -3.6292    0.0000 C   0  0  0  0  0  0  0  0  0  0  0  0
    4.9542   -3.2167    0.0000 C   0  0  0  0  0  0  0  0  0  0  0  0
    4.4417   -4.1167    0.0000 C   0  0  0  0  0  0  0  0  0  0  0  0
    4.4417   -3.5167    0.0000 C   0  0  0  0  0  0  0  0  0  0  0  0
  2  1  1  0
  3  4  1  0
  4  1  1  0
  5  2  1  0
  6  7  2  0
  7  5  1  0
  8  1  1  0
  9  5  2  0
 10 11  2  0
 11  9  1  0
  3  2  1  0
  6 10  1  0
M  END

> <chembl_id>
CHEMBL321099

> <chembl_pref_name>
None

$$$$

     RDKit          2D

  8  8  0  0  0  0  0  0  0  0999 V2000
    4.1032  -15.8590    0.0000 C   0  0  0  0  0  0  0  0  0  0  0  0
    4.8129  -16.2647    0.0000 N   0  0  0  0  0  0  0  0  0  0  0  0
    4.1006  -15.0416    0.0000 S   0  0  0  0  0  0  0  0  0  0  0  0
    3.3971  -16.2702    0.0000 C   0  0  0  0  0  0  0  0  0  0  0  0
    2.6227  -15.9966    0.0000 C   0  0  0  0  0  0  0  0  0  0  0  0
    2.1251  -16.6448    0.0000 C   0  0  0  0  0  0  0  0  0  0  0  0
    2.5879  -17.3184    0.0000 C   0  0  0  0  0  0  0  0  0  0  0  0
    3.3714  -17.0864    0.0000 S   0  0  0  0  0  0  0  0  0  0  0  0
  1  2  1  0
  1  3  2  0
  1  4  1  0
  4  5  2  0
  5  6  1  0
  6  7  2  0
  7  8  1  0
  8  4  1  0
M  END

> <chembl_id>
CHEMBL2441348

> <chembl_pref_name>
None

$$$$

     RDKit          2D

  9  9  0  0  0  0  0  0  0  0999 V2000
    9.0064   -8.0384    0.0000 N   0  0  0  0  0  0  0  0  0  0  0  0
    9.7212   -7.6265    0.0000 C   0  0  0  0  0  0  0  0  0  0  0  0
   10.4360   -8.0384    0.0000 C   0  0  0  0  0  0  0  0  0  0  0  0
   11.1467   -7.6265    0.0000 C   0  0  0  0  0  0  0  0  0  0  0  0
   11.2355   -6.8055    0.0000 C   0  0  0  0  0  0  0  0  0  0  0  0
   12.0403   -6.6333    0.0000 N   0  0  0  0  0  0  0  0  0  0  0  0
   12.4522   -7.3481    0.0000 C   0  0  0  0  0  0  0  0  0  0  0  0
   11.9000   -7.9595    0.0000 N   0  0  0  0  0  0  0  0  0  0  0  0
    8.2934   -7.6259    0.0000 C   0  0  0  0  0  0  0  0  0  0  0  0
  1  2  1  0
  2  3  1  0
  3  4  1  0
  4  5  2  0
  5  6  1  0
  6  7  2  0
  7  8  1  0
  4  8  1  0
  1  9  1  0
M  END

> <chembl_id>
CHEMBL268490

> <chembl_pref_name>
None

$$$$

     RDKit          2D

 11 11  0  0  0  0  0  0  0  0999 V2000
    5.6167   -3.3667    0.0000 C   0  0  0  0  0  0  0  0  0  0  0  0
    7.7750   -6.2792    0.0000 N   0  0  0  0  0  0  0  0  0  0  0  0
    5.6167   -4.1917    0.0000 C   0  0  0  0  0  0  0  0  0  0  0  0
    7.0542   -5.8542    0.0000 C   0  0  0  0  0  0  0  0  0  0  0  0
    6.3292   -4.6042    0.0000 C   0  0  0  0  0  0  0  0  0  0  0  0
    4.9000   -2.9542    0.0000 O   0  0  0  0  0  0  0  0  0  0  0  0
    6.3292   -5.4375    0.0000 C   0  0  0  0  0  0  0  0  0  0  0  0
    6.3292   -2.9542    0.0000 O   0  0  0  0  0  0  0  0  0  0  0  0
    4.9042   -4.6042    0.0000 C   0  0  0  0  0  0  0  0  0  0  0  0
    4.9042   -5.4375    0.0000 C   0  0  0  0  0  0  0  0  0  0  0  0
    5.6167   -5.8500    0.0000 C   0  0  0  0  0  0  0  0  0  0  0  0
  2  4  3  0
  3  1  1  0
  4  7  1  0
  5  3  2  0
  6  1  2  0
  7  5  1  0
  8  1  1  0
  9  3  1  0
 10  9  2  0
 11 10  1  0
 11  7  2  0
M  END

> <chembl_id>
CHEMBL66210

> <chembl_pref_name>
None

$$$$

     RDKit          2D

 10 10  0  0  0  0  0  0  0  0999 V2000
    0.2858   -0.1607    0.0000 C   0  0  0  0  0  0  0  0  0  0  0  0
    1.0003   -0.5732    0.0000 C   0  0  0  0  0  0  0  0  0  0  0  0
    1.0003   -1.3982    0.0000 C   0  0  0  0  0  0  0  0  0  0  0  0
    0.2858   -1.8107    0.0000 C   0  0  0  0  0  0  0  0  0  0  0  0
   -0.4286   -1.3982    0.0000 C   0  0  0  0  0  0  0  0  0  0  0  0
   -0.4286   -0.5732    0.0000 C   0  0  0  0  0  0  0  0  0  0  0  0
    0.2858    0.6643    0.0000 C   0  0  0  0  0  0  0  0  0  0  0  0
   -0.4286    1.0768    0.0000 C   0  0  0  0  0  0  0  0  0  0  0  0
   -0.4286    1.9018    0.0000 C   0  0  0  0  0  0  0  0  0  0  0  0
   -1.1431    2.3143    0.0000 C   0  0  0  0  0  0  0  0  0  0  0  0
  1  2  2  0
  1  6  1  0
  1  7  1  0
  2  3  1  0
  3  4  2  0
  4  5  1  0
  5  6  2  0
  7  8  1  0
  8  9  1  0
  9 10  1  0
M  END

> <chembl_id>
CHEMBL195441

> <chembl_pref_name>
BUTYLBENZYL

$$$$

     RDKit          2D

  9  9  0  0  0  0  0  0  0  0999 V2000
   10.3631  -11.4032    0.0000 C   0  0  0  0  0  0  0  0  0  0  0  0
   10.1101  -12.1872    0.0000 N   0  0  0  0  0  0  0  0  0  0  0  0
    9.2845  -12.1827    0.0000 C   0  0  0  0  0  0  0  0  0  0  0  0
    9.0328  -11.3981    0.0000 C   0  0  0  0  0  0  0  0  0  0  0  0
    9.7052  -10.9161    0.0000 N   0  0  0  0  0  0  0  0  0  0  0  0
    9.7096  -10.0905    0.0000 C   0  0  0  0  0  0  0  0  0  0  0  0
   10.4231   -9.6796    0.0000 C   0  0  0  0  0  0  0  0  0  0  0  0
   10.4275   -8.8540    0.0000 C   0  0  0  0  0  0  0  0  0  0  0  0
   11.1455   -8.4476    0.0000 C   0  0  0  0  0  0  0  0  0  0  0  0
  1  2  2  0
  2  3  1  0
  3  4  2  0
  4  5  1  0
  1  5  1  0
  6  7  1  0
  7  8  1  0
  8  9  1  0
  5  6  1  0
M  END

> <chembl_id>
CHEMBL97667

> <chembl_pref_name>
None

$$$$

     RDKit          2D

  8  8  0  0  0  0  0  0  0  0999 V2000
    0.3917   -2.3792    0.0000 N   0  0  0  0  0  0  0  0  0  0  0  0
    1.1042   -1.9750    0.0000 C   0  0  0  0  0  0  0  0  0  0  0  0
   -0.3125   -1.9750    0.0000 C   0  0  0  0  0  0  0  0  0  0  0  0
    1.1042   -1.1500    0.0000 C   0  0  0  0  0  0  0  0  0  0  0  0
    1.8250   -2.3875    0.0000 O   0  0  0  0  0  0  0  0  0  0  0  0
   -0.3125   -1.1500    0.0000 C   0  0  0  0  0  0  0  0  0  0  0  0
    0.3917   -0.7292    0.0000 C   0  0  0  0  0  0  0  0  0  0  0  0
    0.3917   -3.2042    0.0000 O   0  0  0  0  0  0  0  0  0  0  0  0
  2  1  1  0
  3  1  1  0
  4  2  1  0
  5  2  2  0
  6  3  2  0
  7  6  1  0
  8  1  1  0
  7  4  2  0
M  END

> <chembl_id>
CHEMBL81398

> <chembl_pref_name>
None

$$$$

     RDKit          2D

  8  8  0  0  0  0  0  0  0  0999 V2000
    3.4339   -3.6443    0.0000 C   0  0  0  0  0  0  0  0  0  0  0  0
    3.4339   -4.4657    0.0000 C   0  0  0  0  0  0  0  0  0  0  0  0
    4.1391   -4.8701    0.0000 N   0  0  0  0  0  0  0  0  0  0  0  0
    4.8485   -4.4657    0.0000 C   0  0  0  0  0  0  0  0  0  0  0  0
    4.8485   -3.6443    0.0000 C   0  0  0  0  0  0  0  0  0  0  0  0
    4.1391   -3.2275    0.0000 N   0  0  0  0  0  0  0  0  0  0  0  0
    4.1391   -2.4062    0.0000 O   0  0  0  0  0  0  0  0  0  0  0  0
    2.7226   -4.8753    0.0000 O   0  0  0  0  0  0  0  0  0  0  0  0
  1  2  1  0
  1  6  2  0
  2  3  1  0
  3  4  1  0
  4  5  2  0
  5  6  1  0
  6  7  1  0
  2  8  2  0
M  CHG  2   6   1   7  -1
M  END

> <chembl_id>
CHEMBL4293219

> <chembl_pref_name>
None

$$$$

     RDKit          2D

  8  8  0  0  0  0  0  0  0  0999 V2000
   -0.7554    1.2745    0.0000 O   0  0  0  0  0  0  0  0  0  0  0  0
    0.6736    1.2745    0.0000 O   0  0  0  0  0  0  0  0  0  0  0  0
   -0.0409    0.8620    0.0000 C   0  0  0  0  0  0  0  0  0  0  0  0
   -0.0409    0.0370    0.0000 C   0  0  0  0  0  0  0  0  0  0  0  0
    0.6265   -0.4479    0.0000 C   0  0  0  0  0  0  0  0  0  0  0  0
    0.3716   -1.2325    0.0000 C   0  0  0  0  0  0  0  0  0  0  0  0
   -0.4534   -1.2325    0.0000 C   0  0  0  0  0  0  0  0  0  0  0  0
   -0.7084   -0.4479    0.0000 N   0  0  0  0  0  0  0  0  0  0  0  0
  3  1  2  0
  3  2  1  0
  3  4  1  0
  4  5  2  0
  4  8  1  0
  5  6  1  0
  6  7  2  0
  7  8  1  0
M  END

> <chembl_id>
CHEMBL509027

> <chembl_pref_name>
None

$$$$

     RDKit          2D

 11 11  0  0  0  0  0  0  0  0999 V2000
   -1.6500   -1.4289    0.0000 C   0  0  0  0  0  0  0  0  0  0  0  0
   -0.8250   -1.4289    0.0000 C   0  0  0  0  0  0  0  0  0  0  0  0
   -0.4125   -0.7145    0.0000 C   0  0  0  0  0  0  0  0  0  0  0  0
    0.4125   -0.7145    0.0000 C   0  0  0  0  0  0  0  0  0  0  0  0
    0.8250    0.0000    0.0000 C   0  0  0  0  0  0  0  0  0  0  0  0
    1.6500    0.0000    0.0000 C   0  0  0  0  0  0  0  0  0  0  0  0
    2.0625   -0.7145    0.0000 C   0  0  0  0  0  0  0  0  0  0  0  0
    1.6500   -1.4289    0.0000 C   0  0  0  0  0  0  0  0  0  0  0  0
    0.8250   -1.4289    0.0000 C   0  0  0  0  0  0  0  0  0  0  0  0
   -2.0625   -0.7145    0.0000 O   0  0  0  0  0  0  0  0  0  0  0  0
    0.4125    0.7145    0.0000 O   0  0  0  0  0  0  0  0  0  0  0  0
  1  2  1  0
  2  3  2  0
  3  4  1  0
  4  5  1  0
  5  6  2  0
  6  7  1  0
  7  8  2  0
  8  9  1  0
  4  9  2  0
  1 10  2  0
  5 11  1  0
M  END

> <chembl_id>
CHEMBL52569

> <chembl_pref_name>
2-HYDROXYCINNAMALDEHYDE

$$$$

     RDKit          2D

  8  8  0  0  0  0  0  0  0  0999 V2000
    0.0000    1.6500    0.0000 Cl  0  0  0  0  0  0  0  0  0  0  0  0
    0.0000   -1.6500    0.0000 O   0  0  0  0  0  0  0  0  0  0  0  0
    0.7145    0.4125    0.0000 N   0  0  0  0  0  0  0  0  0  0  0  0
    0.7145   -0.4125    0.0000 N   0  0  0  0  0  0  0  0  0  0  0  0
    0.0000    0.8250    0.0000 C   0  0  0  0  0  0  0  0  0  0  0  0
    0.0000   -0.8250    0.0000 C   0  0  0  0  0  0  0  0  0  0  0  0
   -0.7145    0.4125    0.0000 C   0  0  0  0  0  0  0  0  0  0  0  0
   -0.7145   -0.4125    0.0000 C   0  0  0  0  0  0  0  0  0  0  0  0
  1  5  1  0
  2  6  1  0
  3  4  2  0
  3  5  1  0
  4  6  1  0
  5  7  2  0
  6  8  2  0
  7  8  1  0
M  END

> <chembl_id>
CHEMBL1385200

> <chembl_pref_name>
None

$$$$

     RDKit          2D

  9  9  0  0  0  0  0  0  0  0999 V2000
    2.4171  -16.5213    0.0000 C   0  0  0  0  0  0  0  0  0  0  0  0
    2.4160  -17.3408    0.0000 N   0  0  0  0  0  0  0  0  0  0  0  0
    3.1240  -17.7498    0.0000 C   0  0  0  0  0  0  0  0  0  0  0  0
    3.8337  -17.3403    0.0000 C   0  0  0  0  0  0  0  0  0  0  0  0
    3.8309  -16.5177    0.0000 C   0  0  0  0  0  0  0  0  0  0  0  0
    3.1222  -16.1124    0.0000 C   0  0  0  0  0  0  0  0  0  0  0  0
    4.5370  -16.1064    0.0000 C   0  0  0  0  0  0  0  0  0  0  0  0
    5.2463  -16.5123    0.0000 N   0  0  0  0  0  0  0  0  0  0  0  0
    4.5340  -15.2892    0.0000 S   0  0  0  0  0  0  0  0  0  0  0  0
  1  2  2  0
  2  3  1  0
  3  4  2  0
  4  5  1  0
  5  6  2  0
  6  1  1  0
  5  7  1  0
  7  8  1  0
  7  9  2  0
M  END

> <chembl_id>
CHEMBL2441351

> <chembl_pref_name>
None

$$$$

     RDKit          2D

 11 12  0  0  0  0  0  0  0  0999 V2000
    5.7000    1.4500    0.0000 C   0  0  0  0  0  0  0  0  0  0  0  0
    5.2125    1.7958    0.0000 N   0  0  0  0  0  0  0  0  0  0  0  0
    5.5167    0.8833    0.0000 N   0  0  0  0  0  0  0  0  0  0  0  0
    6.2667    1.6375    0.0000 C   0  0  0  0  0  0  0  0  0  0  0  0
    4.9125    0.8833    0.0000 C   0  0  0  0  0  0  0  0  0  0  0  0
    4.7292    1.4458    0.0000 C   0  0  0  0  0  0  0  0  0  0  0  0
    6.5667    2.1583    0.0000 C   0  0  0  0  0  0  0  0  0  0  0  0
    6.5667    1.1208    0.0000 C   0  0  0  0  0  0  0  0  0  0  0  0
    7.1667    2.1583    0.0000 C   0  0  0  0  0  0  0  0  0  0  0  0
    7.1750    1.1208    0.0000 C   0  0  0  0  0  0  0  0  0  0  0  0
    7.4667    1.6375    0.0000 C   0  0  0  0  0  0  0  0  0  0  0  0
  2  1  1  0
  3  1  1  0
  4  1  1  0
  5  3  1  0
  6  2  1  0
  7  4  2  0
  8  4  1  0
  9  7  1  0
 10  8  2  0
 11 10  1  0
  5  6  1  0
  9 11  2  0
M  END

> <chembl_id>
CHEMBL276273

> <chembl_pref_name>
None

$$$$

     RDKit          2D

 11 11  0  0  0  0  0  0  0  0999 V2000
   22.5611  -24.2083    0.0000 C   0  0  0  0  0  0  0  0  0  0  0  0
   22.5599  -25.0357    0.0000 C   0  0  0  0  0  0  0  0  0  0  0  0
   23.2747  -25.4485    0.0000 N   0  0  0  0  0  0  0  0  0  0  0  0
   23.9912  -25.0352    0.0000 C   0  0  0  0  0  0  0  0  0  0  0  0
   23.9883  -24.2047    0.0000 N   0  0  0  0  0  0  0  0  0  0  0  0
   23.2729  -23.7955    0.0000 C   0  0  0  0  0  0  0  0  0  0  0  0
   24.7063  -25.4466    0.0000 N   0  0  0  0  0  0  0  0  0  0  0  0
   24.7076  -26.2716    0.0000 C   0  0  0  0  0  0  0  0  0  0  0  0
   25.4201  -25.0329    0.0000 C   0  0  0  0  0  0  0  0  0  0  0  0
   26.1352  -25.4443    0.0000 C   0  0  0  0  0  0  0  0  0  0  0  0
   26.8500  -25.8521    0.0000 C   0  0  0  0  0  0  0  0  0  0  0  0
  5  6  2  0
  6  1  1  0
  1  2  2  0
  4  7  1  0
  3  4  2  0
  7  8  1  0
  7  9  1  0
  4  5  1  0
  9 10  1  0
  2  3  1  0
 10 11  3  0
M  END

> <chembl_id>
CHEMBL1650068

> <chembl_pref_name>
None

$$$$

     RDKit          2D

 11 11  0  0  0  0  0  0  0  0999 V2000
    4.1920    1.0017    0.0000 C   0  0  0  0  0  0  0  0  0  0  0  0
    3.4775    0.5892    0.0000 C   0  0  0  0  0  0  0  0  0  0  0  0
    3.4775   -0.2358    0.0000 C   0  0  0  0  0  0  0  0  0  0  0  0
    4.1920   -0.6483    0.0000 C   0  0  0  0  0  0  0  0  0  0  0  0
    4.9065   -0.2358    0.0000 C   0  0  0  0  0  0  0  0  0  0  0  0
    4.9065    0.5892    0.0000 C   0  0  0  0  0  0  0  0  0  0  0  0
    5.6209   -0.6483    0.0000 C   0  0  0  0  0  0  0  0  0  0  0  0
    6.3354   -0.2358    0.0000 C   0  0  0  0  0  0  0  0  0  0  0  0
    5.6209   -1.4733    0.0000 O   0  0  0  0  0  0  0  0  0  0  0  0
    4.1920    1.8267    0.0000 C   0  0  0  0  0  0  0  0  0  0  0  0
    2.7630    1.0017    0.0000 C   0  0  0  0  0  0  0  0  0  0  0  0
  5  6  2  0
  6  1  1  0
  1  2  2  0
  5  7  1  0
  3  4  2  0
  7  8  1  0
  7  9  2  0
  4  5  1  0
  1 10  1  0
  2  3  1  0
  2 11  1  0
M  END

> <chembl_id>
CHEMBL549898

> <chembl_pref_name>
None

$$$$

     RDKit          2D

 11 11  0  0  0  0  0  0  0  0999 V2000
    0.7145    0.4274    0.0000 N   0  0  0  0  0  0  0  0  0  0  0  0
    0.0000    1.6649    0.0000 N   0  0  0  0  0  0  0  0  0  0  0  0
    0.0000   -2.4601    0.0000 N   0  0  0  0  0  0  0  0  0  0  0  0
    0.0000   -0.8101    0.0000 C   0  0  0  0  0  0  0  0  0  0  0  0
    0.7145   -0.3976    0.0000 C   0  0  0  0  0  0  0  0  0  0  0  0
   -0.7145   -0.3976    0.0000 C   0  0  0  0  0  0  0  0  0  0  0  0
    0.0000    0.8399    0.0000 C   0  0  0  0  0  0  0  0  0  0  0  0
   -0.7145    0.4274    0.0000 C   0  0  0  0  0  0  0  0  0  0  0  0
    0.0000   -1.6351    0.0000 C   0  0  0  0  0  0  0  0  0  0  0  0
    1.4289   -0.8101    0.0000 C   0  0  0  0  0  0  0  0  0  0  0  0
   -1.4289   -0.8101    0.0000 C   0  0  0  0  0  0  0  0  0  0  0  0
  1  5  1  0
  1  7  2  0
  2  7  1  0
  3  9  3  0
  4  5  2  0
  4  6  1  0
  4  9  1  0
  5 10  1  0
  6  8  2  0
  6 11  1  0
  7  8  1  0
M  END

> <chembl_id>
CHEMBL1401631

> <chembl_pref_name>
None

$$$$

     RDKit          2D

 10 11  0  0  1  0  0  0  0  0999 V2000
    3.4667   -3.9375    0.0000 C   0  0  0  0  0  0  0  0  0  0  0  0
    4.0125   -3.3167    0.0000 C   0  0  0  0  0  0  0  0  0  0  0  0
    4.2667   -4.1125    0.0000 C   0  0  0  0  0  0  0  0  0  0  0  0
    2.6792   -4.1875    0.0000 C   0  0  0  0  0  0  0  0  0  0  0  0
    2.0042   -3.7042    0.0000 N   0  0  0  0  0  0  0  0  0  0  0  0
    1.6000   -4.9750    0.0000 N   0  0  0  0  0  0  0  0  0  0  0  0
    1.3500   -4.1875    0.0000 C   0  0  0  0  0  0  0  0  0  0  0  0
    2.4250   -4.9750    0.0000 C   0  0  0  0  0  0  0  0  0  0  0  0
    4.8792   -4.6625    0.0000 C   0  0  0  0  0  0  0  0  0  0  0  0
    4.7042   -5.4667    0.0000 N   0  0  0  0  0  0  0  0  0  0  0  0
  2  1  1  0
  3  1  1  0
  1  4  1  6
  5  4  1  0
  6  8  1  0
  7  5  2  0
  8  4  2  0
  3  9  1  6
 10  9  1  0
  3  2  1  0
  7  6  1  0
M  END

> <chembl_id>
CHEMBL292924

> <chembl_pref_name>
None

$$$$

     RDKit          2D

 11 11  0  0  0  0  0  0  0  0999 V2000
    0.4026    0.9675    0.0000 O   0  0  0  0  0  0  0  0  0  0  0  0
    1.1171   -0.2700    0.0000 N   0  0  0  0  0  0  0  0  0  0  0  0
   -0.3118   -1.9200    0.0000 N   0  0  0  0  0  0  0  0  0  0  0  0
   -0.3118   -0.2700    0.0000 C   0  0  0  0  0  0  0  0  0  0  0  0
    0.4026    0.1425    0.0000 C   0  0  0  0  0  0  0  0  0  0  0  0
   -1.0263    0.1425    0.0000 C   0  0  0  0  0  0  0  0  0  0  0  0
   -0.3118    1.3800    0.0000 C   0  0  0  0  0  0  0  0  0  0  0  0
   -1.0263    0.9675    0.0000 C   0  0  0  0  0  0  0  0  0  0  0  0
   -0.3118   -1.0950    0.0000 C   0  0  0  0  0  0  0  0  0  0  0  0
   -1.7408   -0.2700    0.0000 C   0  0  0  0  0  0  0  0  0  0  0  0
   -0.3118    2.2050    0.0000 C   0  0  0  0  0  0  0  0  0  0  0  0
  5  1  1  0
  1  7  1  0
  2  5  2  0
  3  9  3  0
  4  5  1  0
  4  6  2  0
  4  9  1  0
  6  8  1  0
  6 10  1  0
  7  8  2  0
  7 11  1  0
M  END

> <chembl_id>
CHEMBL1308627

> <chembl_pref_name>
None

$$$$

     RDKit          2D

 10 10  0  0  0  0  0  0  0  0999 V2000
    1.3064    4.7228    0.0000 O   0  0  0  0  0  0  0  0  0  0  0  0
   -1.2135    0.3943    0.0000 N   0  0  0  0  0  0  0  0  0  0  0  0
    0.7500   -1.0323    0.0000 N   0  0  0  0  0  0  0  0  0  0  0  0
    1.3039    3.5228    0.0000 N   0  0  0  0  0  0  0  0  0  0  0  0
    0.0000    1.2760    0.0000 C   0  0  0  0  0  0  0  0  0  0  0  0
    1.2135    0.3943    0.0000 C   0  0  0  0  0  0  0  0  0  0  0  0
   -0.7500   -1.0323    0.0000 C   0  0  0  0  0  0  0  0  0  0  0  0
    0.0031    2.7742    0.0000 C   0  0  0  0  0  0  0  0  0  0  0  0
   -2.3548    0.7651    0.0000 C   0  0  0  0  0  0  0  0  0  0  0  0
    1.4553   -2.0031    0.0000 C   0  0  0  0  0  0  0  0  0  0  0  0
  1  4  1  0
  2  5  1  0
  2  7  1  0
  2  9  1  0
  3  6  1  0
  3  7  2  0
  3 10  1  0
  4  8  2  0
  5  6  2  0
  5  8  1  0
M  CHG  1   3   1
M  END

> <chembl_id>
CHEMBL3306355

> <chembl_pref_name>
None

$$$$

     RDKit          2D

  6  6  0  0  0  0  0  0  0  0999 V2000
   14.3708   -0.2250    0.0000 N   0  0  0  0  0  0  0  0  0  0  0  0
   15.1958   -0.2250    0.0000 N   0  0  0  0  0  0  0  0  0  0  0  0
   15.4526    0.5591    0.0000 C   0  0  0  0  0  0  0  0  0  0  0  0
   14.7833    1.0458    0.0000 S   0  0  0  0  0  0  0  0  0  0  0  0
   14.1183    0.5591    0.0000 C   0  0  0  0  0  0  0  0  0  0  0  0
   13.3335    0.8137    0.0000 N   0  0  0  0  0  0  0  0  0  0  0  0
  2  3  2  0
  3  4  1  0
  4  5  1  0
  5  1  2  0
  1  2  1  0
  5  6  1  0
M  END

> <chembl_id>
CHEMBL1650237

> <chembl_pref_name>
None

$$$$

     RDKit          2D

  9  9  0  0  0  0  0  0  0  0999 V2000
    2.3959   -2.4381    0.0000 N   0  0  0  0  0  0  0  0  0  0  0  0
    1.6815   -1.2006    0.0000 C   0  0  0  0  0  0  0  0  0  0  0  0
    1.6815   -2.0256    0.0000 C   0  0  0  0  0  0  0  0  0  0  0  0
    0.9670   -0.7881    0.0000 C   0  0  0  0  0  0  0  0  0  0  0  0
    0.9670   -2.4381    0.0000 C   0  0  0  0  0  0  0  0  0  0  0  0
    0.2525   -1.2006    0.0000 C   0  0  0  0  0  0  0  0  0  0  0  0
    0.2525   -2.0256    0.0000 C   0  0  0  0  0  0  0  0  0  0  0  0
    2.3959   -0.7881    0.0000 C   0  0  0  0  0  0  0  0  0  0  0  0
    0.9670    0.0369    0.0000 C   0  0  0  0  0  0  0  0  0  0  0  0
  1  3  1  0
  2  3  2  0
  2  4  1  0
  2  8  1  0
  3  5  1  0
  4  6  2  0
  4  9  1  0
  5  7  2  0
  6  7  1  0
M  END

> <chembl_id>
CHEMBL1578983

> <chembl_pref_name>
None

$$$$

     RDKit          2D

 11 12  0  0  0  0  0  0  0  0999 V2000
    0.6540   -1.6276    0.0000 C   0  0  0  0  0  0  0  0  0  0  0  0
    1.3648   -1.2025    0.0000 C   0  0  0  0  0  0  0  0  0  0  0  0
    1.3519   -0.3771    0.0000 C   0  0  0  0  0  0  0  0  0  0  0  0
    0.6293    0.0247    0.0000 C   0  0  0  0  0  0  0  0  0  0  0  0
   -0.0824   -0.4081    0.0000 C   0  0  0  0  0  0  0  0  0  0  0  0
   -0.0622   -1.2277    0.0000 C   0  0  0  0  0  0  0  0  0  0  0  0
   -0.8007   -0.0055    0.0000 C   0  0  0  0  0  0  0  0  0  0  0  0
   -1.2248    0.6953    0.0000 C   0  0  0  0  0  0  0  0  0  0  0  0
   -1.6254   -0.0260    0.0000 C   0  0  0  0  0  0  0  0  0  0  0  0
   -2.3320   -0.4443    0.0000 C   0  0  0  0  0  0  0  0  0  0  0  0
   -3.0480   -0.0430    0.0000 N   0  0  0  0  0  0  0  0  0  0  0  0
  1  2  2  0
  2  3  1  0
  3  4  2  0
  4  5  1  0
  5  6  2  0
  6  1  1  0
  7  5  1  1
  8  7  1  0
  9  8  1  0
  7  9  1  0
  9 10  1  1
 10 11  1  0
M  END

> <chembl_id>
CHEMBL1185943

> <chembl_pref_name>
None

$$$$

     RDKit          2D

 10 10  0  0  0  0  0  0  0  0999 V2000
    9.2538   -0.5013    0.0000 O   0  0  0  0  0  0  0  0  0  0  0  0
    9.7471   -1.1588    0.0000 N   0  0  0  0  0  0  0  0  0  0  0  0
   10.5246   -0.8831    0.0000 C   0  0  0  0  0  0  0  0  0  0  0  0
   10.5118   -0.0747    0.0000 C   0  0  0  0  0  0  0  0  0  0  0  0
    9.7209    0.1687    0.0000 N   0  0  0  0  0  0  0  0  0  0  0  0
   11.2177   -1.3478    0.0000 C   0  0  0  0  0  0  0  0  0  0  0  0
   11.9565   -0.9806    0.0000 C   0  0  0  0  0  0  0  0  0  0  0  0
   11.1801    0.4165    0.0000 O   0  0  0  0  0  0  0  0  0  0  0  0
   12.6394   -1.4412    0.0000 C   0  0  0  0  0  0  0  0  0  0  0  0
   13.3824   -1.0782    0.0000 N   0  0  0  0  0  0  0  0  0  0  0  0
  5  1  1  0
  2  3  2  0
  3  6  1  0
  6  7  1  0
  1  2  1  0
  4  8  1  0
  3  4  1  0
  7  9  1  0
  4  5  2  0
  9 10  1  0
M  END

> <chembl_id>
CHEMBL211542

> <chembl_pref_name>
None

$$$$

     RDKit          2D

 10 10  0  0  0  0  0  0  0  0999 V2000
   13.7656    2.6353    0.0000 C   0  0  0  0  0  0  0  0  0  0  0  0
   13.7644    1.8077    0.0000 C   0  0  0  0  0  0  0  0  0  0  0  0
   14.4773    1.3948    0.0000 C   0  0  0  0  0  0  0  0  0  0  0  0
   15.1966    1.8083    0.0000 C   0  0  0  0  0  0  0  0  0  0  0  0
   15.1934    2.6392    0.0000 C   0  0  0  0  0  0  0  0  0  0  0  0
   14.4753    3.0480    0.0000 C   0  0  0  0  0  0  0  0  0  0  0  0
   15.9059    3.0552    0.0000 C   0  0  0  0  0  0  0  0  0  0  0  0
   16.6222    2.6463    0.0000 C   0  0  0  0  0  0  0  0  0  0  0  0
   17.3346    3.0624    0.0000 N   0  0  0  0  0  0  0  0  0  0  0  0
   13.0509    3.0471    0.0000 F   0  0  0  0  0  0  0  0  0  0  0  0
  2  3  1  0
  5  6  2  0
  6  1  1  0
  1  2  2  0
  5  7  1  0
  3  4  2  0
  7  8  1  0
  8  9  1  0
  4  5  1  0
  1 10  1  0
M  END

> <chembl_id>
CHEMBL446238

> <chembl_pref_name>
None

$$$$

     RDKit          2D

  8  8  0  0  0  0  0  0  0  0999 V2000
   17.8815  -14.3871    0.0000 S   0  0  0  0  0  0  0  0  0  0  0  0
   17.1024  -14.1353    0.0000 C   0  0  0  0  0  0  0  0  0  0  0  0
   17.1024  -13.3163    0.0000 N   0  0  0  0  0  0  0  0  0  0  0  0
   17.8815  -13.0645    0.0000 C   0  0  0  0  0  0  0  0  0  0  0  0
   18.3646  -13.7238    0.0000 C   0  0  0  0  0  0  0  0  0  0  0  0
   19.1836  -13.7238    0.0000 C   0  0  0  0  0  0  0  0  0  0  0  0
   19.5952  -14.4336    0.0000 C   0  0  0  0  0  0  0  0  0  0  0  0
   18.1375  -12.2854    0.0000 C   0  0  0  0  0  0  0  0  0  0  0  0
  1  2  1  0
  2  3  2  0
  3  4  1  0
  4  5  2  0
  1  5  1  0
  6  7  1  0
  5  6  1  0
  4  8  1  0
M  END

> <chembl_id>
CHEMBL3275138

> <chembl_pref_name>
None

$$$$

     RDKit          2D

 10 10  0  0  0  0  0  0  0  0999 V2000
    7.3327   -7.1855    0.0000 C   0  0  0  0  0  0  0  0  0  0  0  0
    7.3315   -8.0050    0.0000 C   0  0  0  0  0  0  0  0  0  0  0  0
    8.0396   -8.4140    0.0000 C   0  0  0  0  0  0  0  0  0  0  0  0
    8.7492   -8.0045    0.0000 C   0  0  0  0  0  0  0  0  0  0  0  0
    8.7464   -7.1819    0.0000 C   0  0  0  0  0  0  0  0  0  0  0  0
    8.0378   -6.7766    0.0000 C   0  0  0  0  0  0  0  0  0  0  0  0
    8.0353   -5.9594    0.0000 C   0  0  0  0  0  0  0  0  0  0  0  0
    8.7418   -5.5487    0.0000 C   0  0  0  0  0  0  0  0  0  0  0  0
    9.4526   -6.7706    0.0000 O   0  0  0  0  0  0  0  0  0  0  0  0
    6.6249   -6.7770    0.0000 O   0  0  0  0  0  0  0  0  0  0  0  0
  1  2  2  0
  2  3  1  0
  3  4  2  0
  4  5  1  0
  5  6  2  0
  6  1  1  0
  6  7  1  0
  7  8  1  0
  5  9  1  0
  1 10  1  0
M  END

> <chembl_id>
CHEMBL3274375

> <chembl_pref_name>
None

$$$$

     RDKit          2D

 10 10  0  0  0  0  0  0  0  0999 V2000
   -0.6061    3.4229    0.0000 O   0  0  0  0  0  0  0  0  0  0  0  0
    0.8229    0.9479    0.0000 C   0  0  0  0  0  0  0  0  0  0  0  0
    1.5373    0.5354    0.0000 C   0  0  0  0  0  0  0  0  0  0  0  0
    0.1084    0.5354    0.0000 C   0  0  0  0  0  0  0  0  0  0  0  0
    0.8229    1.7729    0.0000 C   0  0  0  0  0  0  0  0  0  0  0  0
    1.5373   -0.2896    0.0000 C   0  0  0  0  0  0  0  0  0  0  0  0
    0.1084   -0.2896    0.0000 C   0  0  0  0  0  0  0  0  0  0  0  0
    0.8229   -0.7021    0.0000 C   0  0  0  0  0  0  0  0  0  0  0  0
    0.1084    2.1854    0.0000 C   0  0  0  0  0  0  0  0  0  0  0  0
    0.1084    3.0104    0.0000 C   0  0  0  0  0  0  0  0  0  0  0  0
  1 10  1  0
  2  3  2  0
  2  4  1  0
  2  5  1  0
  3  6  1  0
  4  7  2  0
  5  9  1  0
  6  8  2  0
  7  8  1  0
  9 10  1  0
M  END

> <chembl_id>
CHEMBL1606391

> <chembl_pref_name>
HYDROCINNAMYL ALCOHOL

$$$$

     RDKit          2D

  9  9  0  0  0  0  0  0  0  0999 V2000
   -2.8480    0.1932    0.0000 C   0  0  0  0  0  0  0  0  0  0  0  0
   -2.2028   -0.3209    0.0000 N   0  0  0  0  0  0  0  0  0  0  0  0
   -1.5145    0.1339    0.0000 C   0  0  0  0  0  0  0  0  0  0  0  0
   -1.7344    0.9292    0.0000 N   0  0  0  0  0  0  0  0  0  0  0  0
   -2.5585    0.9657    0.0000 C   0  0  0  0  0  0  0  0  0  0  0  0
   -3.6471   -0.0263    0.0000 N   0  0  0  0  0  0  0  0  0  0  0  0
   -3.8542   -0.8249    0.0000 O   0  0  0  0  0  0  0  0  0  0  0  0
   -4.2350    0.5524    0.0000 O   0  0  0  0  0  0  0  0  0  0  0  0
   -2.2394   -1.1451    0.0000 C   0  0  0  0  0  0  0  0  0  0  0  0
  4  5  1  0
  5  1  2  0
  1  2  1  0
  2  3  1  0
  6  7  2  0
  6  8  1  0
  1  6  1  0
  3  4  2  0
  2  9  1  0
M  CHG  2   6   1   8  -1
M  END

> <chembl_id>
CHEMBL454026

> <chembl_pref_name>
None

$$$$

     RDKit          2D

 10 10  0  0  0  0  0  0  0  0999 V2000
    3.6785    0.8996    0.0000 O   0  0  0  0  0  0  0  0  0  0  0  0
    2.4492   -1.3062    0.0000 O   0  0  0  0  0  0  0  0  0  0  0  0
    1.2932   -0.4663    0.0000 O   0  0  0  0  0  0  0  0  0  0  0  0
    2.2966    2.6220    0.0000 O   0  0  0  0  0  0  0  0  0  0  0  0
    3.4236    0.1149    0.0000 N   0  0  0  0  0  0  0  0  0  0  0  0
    2.1137   -0.5525    0.0000 N   0  0  0  0  0  0  0  0  0  0  0  0
    2.5986    0.1149    0.0000 C   0  0  0  0  0  0  0  0  0  0  0  0
    3.0111    1.3845    0.0000 C   0  0  0  0  0  0  0  0  0  0  0  0
    2.3437    0.8996    0.0000 C   0  0  0  0  0  0  0  0  0  0  0  0
    3.0111    2.2095    0.0000 C   0  0  0  0  0  0  0  0  0  0  0  0
  1  5  1  0
  1  8  1  0
  2  6  1  0
  3  6  2  0
  4 10  2  0
  5  7  2  0
  6  7  1  0
  7  9  1  0
  8  9  2  0
  8 10  1  0
M  CHG  2   2  -1   6   1
M  END

> <chembl_id>
CHEMBL1987557

> <chembl_pref_name>
None

$$$$

     RDKit          2D

 10 10  0  0  0  0  0  0  0  0999 V2000
    4.0542   -2.4542    0.0000 N   0  0  0  0  0  0  0  0  0  0  0  0
    5.4792   -2.4542    0.0000 C   0  0  0  0  0  0  0  0  0  0  0  0
    4.7667   -2.0375    0.0000 C   0  0  0  0  0  0  0  0  0  0  0  0
    4.0542   -3.2792    0.0000 C   0  0  0  0  0  0  0  0  0  0  0  0
    4.7667   -3.6875    0.0000 N   0  0  0  0  0  0  0  0  0  0  0  0
    5.4792   -3.2792    0.0000 C   0  0  0  0  0  0  0  0  0  0  0  0
    6.1917   -2.0417    0.0000 C   0  0  0  0  0  0  0  0  0  0  0  0
    6.9042   -1.6292    0.0000 C   0  0  0  0  0  0  0  0  0  0  0  0
    4.7667   -1.2125    0.0000 O   0  0  0  0  0  0  0  0  0  0  0  0
    3.3417   -3.6917    0.0000 O   0  0  0  0  0  0  0  0  0  0  0  0
  2  3  1  0
  3  1  2  0
  4  1  1  0
  5  4  2  0
  6  5  1  0
  7  2  1  0
  8  7  3  0
  9  3  1  0
 10  4  1  0
  6  2  2  0
M  END

> <chembl_id>
CHEMBL355200

> <chembl_pref_name>
ENILURACIL

$$$$

     RDKit          2D

  9  9  0  0  0  0  0  0  0  0999 V2000
    2.8385   -2.5360    0.0000 C   0  0  0  0  0  0  0  0  0  0  0  0
    2.8374   -3.3628    0.0000 C   0  0  0  0  0  0  0  0  0  0  0  0
    3.5518   -3.7755    0.0000 C   0  0  0  0  0  0  0  0  0  0  0  0
    4.2678   -3.3624    0.0000 C   0  0  0  0  0  0  0  0  0  0  0  0
    4.2650   -2.5323    0.0000 C   0  0  0  0  0  0  0  0  0  0  0  0
    3.5500   -2.1235    0.0000 C   0  0  0  0  0  0  0  0  0  0  0  0
    3.5437   -1.2950    0.0000 O   0  0  0  0  0  0  0  0  0  0  0  0
    4.9826   -3.7735    0.0000 F   0  0  0  0  0  0  0  0  0  0  0  0
    2.1231   -3.7746    0.0000 F   0  0  0  0  0  0  0  0  0  0  0  0
  4  5  1  0
  2  3  1  0
  5  6  2  0
  6  1  1  0
  1  2  2  0
  6  7  1  0
  3  4  2  0
  4  8  1  0
  2  9  1  0
M  END

> <chembl_id>
CHEMBL259068

> <chembl_pref_name>
None

$$$$

     RDKit          2D

 11 11  0  0  0  0  0  0  0  0999 V2000
   -3.2704    0.8625    0.0000 O   0  0  0  0  0  0  0  0  0  0  0  0
   -3.2704    0.0375    0.0000 N   0  0  0  0  0  0  0  0  0  0  0  0
   -0.4125   -0.7875    0.0000 N   0  0  0  0  0  0  0  0  0  0  0  0
   -2.5559   -1.2000    0.0000 C   0  0  0  0  0  0  0  0  0  0  0  0
   -1.8414   -1.6125    0.0000 C   0  0  0  0  0  0  0  0  0  0  0  0
   -3.2704   -1.6125    0.0000 C   0  0  0  0  0  0  0  0  0  0  0  0
   -1.8414   -2.4375    0.0000 C   0  0  0  0  0  0  0  0  0  0  0  0
   -2.5559   -0.3750    0.0000 C   0  0  0  0  0  0  0  0  0  0  0  0
   -1.1270   -1.2000    0.0000 C   0  0  0  0  0  0  0  0  0  0  0  0
   -3.2704   -2.4375    0.0000 C   0  0  0  0  0  0  0  0  0  0  0  0
   -2.5559   -2.8500    0.0000 C   0  0  0  0  0  0  0  0  0  0  0  0
  1  2  1  0
  2  8  2  0
  3  9  3  0
  4  5  2  0
  4  6  1  0
  4  8  1  0
  5  7  1  0
  5  9  1  0
  6 10  2  0
  7 11  2  0
 10 11  1  0
M  END

> <chembl_id>
CHEMBL1970759

> <chembl_pref_name>
None

$$$$

     RDKit          2D

 10 10  0  0  0  0  0  0  0  0999 V2000
    0.5649   -1.2660    0.0000 C   0  0  0  0  0  0  0  0  0  0  0  0
    0.5638   -0.4391    0.0000 C   0  0  0  0  0  0  0  0  0  0  0  0
    1.2782   -0.0265    0.0000 C   0  0  0  0  0  0  0  0  0  0  0  0
    1.9942   -0.4396    0.0000 C   0  0  0  0  0  0  0  0  0  0  0  0
    1.9915   -1.2696    0.0000 C   0  0  0  0  0  0  0  0  0  0  0  0
    1.2764   -1.6786    0.0000 C   0  0  0  0  0  0  0  0  0  0  0  0
    1.2739   -2.5032    0.0000 C   0  0  0  0  0  0  0  0  0  0  0  0
    0.5586   -2.9133    0.0000 O   0  0  0  0  0  0  0  0  0  0  0  0
    1.2780    0.7981    0.0000 O   0  0  0  0  0  0  0  0  0  0  0  0
    0.5638    1.2103    0.0000 C   0  0  0  0  0  0  0  0  0  0  0  0
  2  3  1  0
  5  6  2  0
  6  1  1  0
  1  2  2  0
  6  7  1  0
  3  4  2  0
  7  8  1  0
  3  9  1  0
  4  5  1  0
  9 10  1  0
M  END

> <chembl_id>
CHEMBL294431

> <chembl_pref_name>
None

$$$$

     RDKit          2D

  6  6  0  0  0  0  0  0  0  0999 V2000
    1.6417   -2.6542    0.0000 C   0  0  0  0  0  0  0  0  0  0  0  0
    1.4542   -3.2292    0.0000 N   0  0  0  0  0  0  0  0  0  0  0  0
    1.1542   -2.3042    0.0000 N   0  0  0  0  0  0  0  0  0  0  0  0
    0.8500   -3.2292    0.0000 C   0  0  0  0  0  0  0  0  0  0  0  0
    0.6667   -2.6542    0.0000 C   0  0  0  0  0  0  0  0  0  0  0  0
    2.2125   -2.4750    0.0000 F   0  0  0  0  0  0  0  0  0  0  0  0
  2  1  2  0
  3  1  1  0
  4  2  1  0
  5  3  1  0
  6  1  1  0
  4  5  2  0
M  END

> <chembl_id>
CHEMBL292983

> <chembl_pref_name>
None

$$$$

     RDKit          2D

  8  8  0  0  0  0  0  0  0  0999 V2000
    2.7889    0.2921    0.0000 N   0  0  0  0  0  0  0  0  0  0  0  0
    3.2014   -0.9774    0.0000 N   0  0  0  0  0  0  0  0  0  0  0  0
    2.3764   -0.9774    0.0000 N   0  0  0  0  0  0  0  0  0  0  0  0
    4.2409    0.0621    0.0000 N   0  0  0  0  0  0  0  0  0  0  0  0
    2.7889    1.1171    0.0000 N   0  0  0  0  0  0  0  0  0  0  0  0
    4.4125    0.8691    0.0000 N   0  0  0  0  0  0  0  0  0  0  0  0
    3.4563   -0.1928    0.0000 C   0  0  0  0  0  0  0  0  0  0  0  0
    2.1214   -0.1928    0.0000 C   0  0  0  0  0  0  0  0  0  0  0  0
  1  5  1  0
  1  7  1  0
  1  8  1  0
  2  3  1  0
  2  7  2  0
  3  8  2  0
  4  6  1  0
  4  7  1  0
M  END

> <chembl_id>
CHEMBL1523390

> <chembl_pref_name>
None

$$$$

     RDKit          2D

 10 10  0  0  0  0  0  0  0  0999 V2000
    7.1792   -0.0917    0.0000 C   0  0  0  0  0  0  0  0  0  0  0  0
    8.0042   -0.0875    0.0000 C   0  0  0  0  0  0  0  0  0  0  0  0
    4.3000   -0.8542    0.0000 C   0  0  0  0  0  0  0  0  0  0  0  0
    5.9542   -0.8292    0.0000 C   0  0  0  0  0  0  0  0  0  0  0  0
    4.7167   -1.5667    0.0000 C   0  0  0  0  0  0  0  0  0  0  0  0
    4.7042   -0.1292    0.0000 C   0  0  0  0  0  0  0  0  0  0  0  0
    5.5417   -1.5542    0.0000 C   0  0  0  0  0  0  0  0  0  0  0  0
    5.5292   -0.1250    0.0000 C   0  0  0  0  0  0  0  0  0  0  0  0
    3.4792   -0.8625    0.0000 O   0  0  0  0  0  0  0  0  0  0  0  0
    6.7792   -0.8167    0.0000 C   0  0  0  0  0  0  0  0  0  0  0  0
  2  1  2  0
  3  6  2  0
  4 10  1  0
  5  7  2  0
  6  8  1  0
  7  4  1  0
  8  4  2  0
  9  3  1  0
 10  1  1  0
  3  5  1  0
M  END

> <chembl_id>
CHEMBL108862

> <chembl_pref_name>
CHAVICOL

$$$$

     RDKit          2D

 11 11  0  0  0  0  0  0  0  0999 V2000
    3.2917   -1.5042    0.0000 C   0  0  0  0  0  0  0  0  0  0  0  0
    2.8917   -2.2250    0.0000 C   0  0  0  0  0  0  0  0  0  0  0  0
    4.5417   -2.2000    0.0000 O   0  0  0  0  0  0  0  0  0  0  0  0
    4.1167   -1.4917    0.0000 C   0  0  0  0  0  0  0  0  0  0  0  0
    2.0667   -2.2375    0.0000 C   0  0  0  0  0  0  0  0  0  0  0  0
    0.4167   -2.2542    0.0000 C   0  0  0  0  0  0  0  0  0  0  0  0
    1.6625   -2.9625    0.0000 C   0  0  0  0  0  0  0  0  0  0  0  0
    1.6417   -1.5292    0.0000 C   0  0  0  0  0  0  0  0  0  0  0  0
    0.8375   -2.9667    0.0000 C   0  0  0  0  0  0  0  0  0  0  0  0
    0.8250   -1.5375    0.0000 C   0  0  0  0  0  0  0  0  0  0  0  0
   -0.4083   -2.2667    0.0000 O   0  0  0  0  0  0  0  0  0  0  0  0
  2  1  2  0
  3  4  2  0
  4  1  1  0
  5  2  1  0
  6 10  2  0
  7  5  1  0
  8  5  2  0
  9  7  2  0
 10  8  1  0
 11  6  1  0
  9  6  1  0
M  END

> <chembl_id>
CHEMBL431836

> <chembl_pref_name>
p-HYDROXYCINNAMALDEHYDE

$$$$

     RDKit          2D

  9  9  0  0  0  0  0  0  0  0999 V2000
    2.4608  -24.1399    0.0000 C   0  0  0  0  0  0  0  0  0  0  0  0
    3.1745  -23.7261    0.0000 N   0  0  0  0  0  0  0  0  0  0  0  0
    3.1706  -22.9053    0.0000 C   0  0  0  0  0  0  0  0  0  0  0  0
    2.4602  -22.4942    0.0000 C   0  0  0  0  0  0  0  0  0  0  0  0
    1.7465  -22.9080    0.0000 C   0  0  0  0  0  0  0  0  0  0  0  0
    1.7432  -23.7330    0.0000 C   0  0  0  0  0  0  0  0  0  0  0  0
    2.4648  -24.9649    0.0000 S   0  0  0  0  0  0  0  0  0  0  0  0
    3.8903  -24.1362    0.0000 C   0  0  0  0  0  0  0  0  0  0  0  0
    1.0295  -24.1468    0.0000 O   0  0  0  0  0  0  0  0  0  0  0  0
  2  3  1  0
  3  4  2  0
  4  5  1  0
  5  6  2  0
  1  7  2  0
  1  2  1  0
  2  8  1  0
  1  6  1  0
  6  9  1  0
M  END

> <chembl_id>
CHEMBL1650621

> <chembl_pref_name>
None

$$$$

     RDKit          2D

  9  9  0  0  0  0  0  0  0  0999 V2000
   -4.7056    0.0500    0.0000 C   0  0  0  0  0  0  0  0  0  0  0  0
   -4.7068   -0.7773    0.0000 C   0  0  0  0  0  0  0  0  0  0  0  0
   -3.9919   -1.1902    0.0000 N   0  0  0  0  0  0  0  0  0  0  0  0
   -3.2755   -0.7769    0.0000 C   0  0  0  0  0  0  0  0  0  0  0  0
   -3.2784    0.0537    0.0000 C   0  0  0  0  0  0  0  0  0  0  0  0
   -3.9937    0.4628    0.0000 C   0  0  0  0  0  0  0  0  0  0  0  0
   -2.5604   -1.1882    0.0000 N   0  0  0  0  0  0  0  0  0  0  0  0
   -1.8466   -0.7746    0.0000 O   0  0  0  0  0  0  0  0  0  0  0  0
   -5.4216   -1.1893    0.0000 C   0  0  0  0  0  0  0  0  0  0  0  0
  4  5  1  0
  2  3  1  0
  5  6  2  0
  6  1  1  0
  1  2  2  0
  4  7  1  0
  3  4  2  0
  7  8  2  0
  2  9  1  0
M  END

> <chembl_id>
CHEMBL1916778

> <chembl_pref_name>
None

$$$$

     RDKit          2D

 11 11  0  0  0  0  0  0  0  0999 V2000
   16.2557  -13.6859    0.0000 C   0  0  0  0  0  0  0  0  0  0  0  0
   16.2546  -14.5054    0.0000 C   0  0  0  0  0  0  0  0  0  0  0  0
   16.9626  -14.9144    0.0000 N   0  0  0  0  0  0  0  0  0  0  0  0
   17.6723  -14.5049    0.0000 C   0  0  0  0  0  0  0  0  0  0  0  0
   17.6695  -13.6823    0.0000 C   0  0  0  0  0  0  0  0  0  0  0  0
   16.9608  -13.2770    0.0000 C   0  0  0  0  0  0  0  0  0  0  0  0
   16.9624  -15.7315    0.0000 O   0  0  0  0  0  0  0  0  0  0  0  0
   18.3806  -14.9124    0.0000 N   0  0  0  0  0  0  0  0  0  0  0  0
   18.3756  -13.2710    0.0000 C   0  0  0  0  0  0  0  0  0  0  0  0
   15.5466  -14.9134    0.0000 C   0  0  0  0  0  0  0  0  0  0  0  0
   19.0796  -12.8585    0.0000 N   0  0  0  0  0  0  0  0  0  0  0  0
  1  2  2  0
  2  3  1  0
  3  4  2  0
  4  5  1  0
  5  6  2  0
  6  1  1  0
  3  7  1  0
  4  8  1  0
  5  9  1  0
  2 10  1  0
  9 11  3  0
M  CHG  2   3   1   7  -1
M  END

> <chembl_id>
CHEMBL3110055

> <chembl_pref_name>
None

$$$$

     RDKit          2D

 10 10  0  0  0  0  0  0  0  0999 V2000
   -0.5686  -16.4889    0.0000 C   0  0  0  0  0  0  0  0  0  0  0  0
   -1.2850  -16.9035    0.0000 C   0  0  0  0  0  0  0  0  0  0  0  0
   -0.5686  -15.6639    0.0000 O   0  0  0  0  0  0  0  0  0  0  0  0
    0.1479  -16.9035    0.0000 N   0  0  0  0  0  0  0  0  0  0  0  0
   -1.9932  -16.4889    0.0000 C   0  0  0  0  0  0  0  0  0  0  0  0
   -2.7096  -16.9035    0.0000 C   0  0  0  0  0  0  0  0  0  0  0  0
   -3.4220  -16.4889    0.0000 C   0  0  0  0  0  0  0  0  0  0  0  0
   -3.4220  -15.6639    0.0000 C   0  0  0  0  0  0  0  0  0  0  0  0
   -2.7096  -15.2534    0.0000 C   0  0  0  0  0  0  0  0  0  0  0  0
   -1.9932  -15.6639    0.0000 N   0  0  0  0  0  0  0  0  0  0  0  0
  1  2  1  0
  1  3  2  0
  1  4  1  0
  5  6  1  0
  6  7  2  0
  7  8  1  0
  8  9  2  0
  9 10  1  0
  5 10  2  0
  2  5  1  0
M  END

> <chembl_id>
CHEMBL451098

> <chembl_pref_name>
PYRIDINE ACETAMIDE

$$$$

     RDKit          2D

 10 10  0  0  0  0  0  0  0  0999 V2000
   -0.5248   -0.8858    0.0000 C   0  0  0  0  0  0  0  0  0  0  0  0
   -0.5248   -0.0608    0.0000 C   0  0  0  0  0  0  0  0  0  0  0  0
    0.1897    0.3517    0.0000 C   0  0  0  0  0  0  0  0  0  0  0  0
    0.9042   -0.0608    0.0000 C   0  0  0  0  0  0  0  0  0  0  0  0
    0.9042   -0.8858    0.0000 C   0  0  0  0  0  0  0  0  0  0  0  0
    0.1897   -1.2983    0.0000 C   0  0  0  0  0  0  0  0  0  0  0  0
   -1.2392   -1.2983    0.0000 C   0  0  0  0  0  0  0  0  0  0  0  0
    0.1897    1.1767    0.0000 N   0  0  0  0  0  0  0  0  0  0  0  0
   -0.5248    1.5892    0.0000 O   0  0  0  0  0  0  0  0  0  0  0  0
    0.9042    1.5892    0.0000 O   0  0  0  0  0  0  0  0  0  0  0  0
  1  2  2  0
  1  6  1  0
  1  7  1  0
  2  3  1  0
  3  4  2  0
  3  8  1  0
  4  5  1  0
  5  6  2  0
  8  9  2  0
  8 10  1  0
M  CHG  2   8   1  10  -1
M  END

> <chembl_id>
CHEMBL114059

> <chembl_pref_name>
None

$$$$

     RDKit          2D

  6  6  0  0  0  0  0  0  0  0999 V2000
    0.6043   -0.7038    0.0000 O   0  0  0  0  0  0  0  0  0  0  0  0
    1.2717   -0.2189    0.0000 C   0  0  0  0  0  0  0  0  0  0  0  0
    1.9391   -0.7038    0.0000 C   0  0  0  0  0  0  0  0  0  0  0  0
    0.8592   -1.4884    0.0000 C   0  0  0  0  0  0  0  0  0  0  0  0
    1.6842   -1.4884    0.0000 C   0  0  0  0  0  0  0  0  0  0  0  0
    1.2717    0.6061    0.0000 C   0  0  0  0  0  0  0  0  0  0  0  0
  1  2  1  0
  1  4  1  0
  2  3  2  0
  2  6  1  0
  3  5  1  0
  4  5  2  0
M  END

> <chembl_id>
CHEMBL1445555

> <chembl_pref_name>
None

$$$$

     RDKit          2D

  9  9  0  0  0  0  0  0  0  0999 V2000
    2.3317  -12.6466    0.0000 C   0  0  0  0  0  0  0  0  0  0  0  0
    2.3317  -13.4724    0.0000 N   0  0  0  0  0  0  0  0  0  0  0  0
    3.0439  -13.8845    0.0000 C   0  0  0  0  0  0  0  0  0  0  0  0
    3.7590  -13.4719    0.0000 C   0  0  0  0  0  0  0  0  0  0  0  0
    3.7590  -12.6430    0.0000 C   0  0  0  0  0  0  0  0  0  0  0  0
    3.0421  -12.2346    0.0000 C   0  0  0  0  0  0  0  0  0  0  0  0
    4.4728  -13.8825    0.0000 C   0  0  0  0  0  0  0  0  0  0  0  0
    4.4728  -14.7059    0.0000 O   0  0  0  0  0  0  0  0  0  0  0  0
    3.0439  -14.7080    0.0000 Cl  0  0  0  0  0  0  0  0  0  0  0  0
  1  2  2  0
  2  3  1  0
  3  4  2  0
  4  5  1  0
  5  6  2  0
  6  1  1  0
  4  7  1  0
  7  8  2  0
  3  9  1  0
M  END

> <chembl_id>
CHEMBL2228156

> <chembl_pref_name>
2-CHLORONICOTINALDEHYDE

$$$$

     RDKit          2D

  9  9  0  0  0  0  0  0  0  0999 V2000
    7.3341   -2.2600    0.0000 C   0  0  0  0  0  0  0  0  0  0  0  0
    7.9832   -2.7565    0.0000 S   0  0  0  0  0  0  0  0  0  0  0  0
    8.6571   -2.2941    0.0000 C   0  0  0  0  0  0  0  0  0  0  0  0
    8.4235   -1.5084    0.0000 C   0  0  0  0  0  0  0  0  0  0  0  0
    7.6073   -1.4911    0.0000 C   0  0  0  0  0  0  0  0  0  0  0  0
    9.4275   -2.5668    0.0000 C   0  0  0  0  0  0  0  0  0  0  0  0
    9.5765   -3.3703    0.0000 O   0  0  0  0  0  0  0  0  0  0  0  0
    6.5506   -2.4923    0.0000 C   0  0  0  0  0  0  0  0  0  0  0  0
    5.9577   -1.9299    0.0000 O   0  0  0  0  0  0  0  0  0  0  0  0
  1  2  1  0
  2  3  1  0
  3  4  2  0
  4  5  1  0
  5  1  2  0
  3  6  1  0
  6  7  2  0
  1  8  1  0
  8  9  2  0
M  END

> <chembl_id>
CHEMBL2229528

> <chembl_pref_name>
2,5-THIOPHENENEDICARBOXALDEHYDE

$$$$

     RDKit          2D

  9  9  0  0  0  0  0  0  0  0999 V2000
    5.6417   -4.7917    0.0000 C   0  0  0  0  0  0  0  0  0  0  0  0
    4.9292   -4.3792    0.0000 N   0  0  0  0  0  0  0  0  0  0  0  0
    5.6417   -5.6167    0.0000 C   0  0  0  0  0  0  0  0  0  0  0  0
    4.9292   -6.0292    0.0000 N   0  0  0  0  0  0  0  0  0  0  0  0
    6.3542   -4.3792    0.0000 O   0  0  0  0  0  0  0  0  0  0  0  0
    4.2167   -4.7917    0.0000 C   0  0  0  0  0  0  0  0  0  0  0  0
    4.2167   -5.6167    0.0000 C   0  0  0  0  0  0  0  0  0  0  0  0
    6.3542   -6.0292    0.0000 C   0  0  0  0  0  0  0  0  0  0  0  0
    7.0667   -4.7917    0.0000 C   0  0  0  0  0  0  0  0  0  0  0  0
  2  1  2  0
  3  1  1  0
  4  3  2  0
  5  1  1  0
  6  2  1  0
  7  4  1  0
  8  3  1  0
  9  5  1  0
  6  7  2  0
M  END

> <chembl_id>
CHEMBL329881

> <chembl_pref_name>
None

$$$$

     RDKit          2D

  9  9  0  0  0  0  0  0  0  0999 V2000
    4.2792  -12.6542    0.0000 N   0  0  0  0  0  0  0  0  0  0  0  0
    4.8042  -13.5542    0.0000 N   0  0  0  0  0  0  0  0  0  0  0  0
    4.8042  -12.9542    0.0000 C   0  0  0  0  0  0  0  0  0  0  0  0
    3.7542  -12.9542    0.0000 C   0  0  0  0  0  0  0  0  0  0  0  0
    4.2792  -13.8542    0.0000 C   0  0  0  0  0  0  0  0  0  0  0  0
    3.7542  -13.5542    0.0000 C   0  0  0  0  0  0  0  0  0  0  0  0
    5.3167  -12.6750    0.0000 O   0  0  0  0  0  0  0  0  0  0  0  0
    4.2792  -14.4167    0.0000 O   0  0  0  0  0  0  0  0  0  0  0  0
    3.1792  -12.6750    0.0000 O   0  0  0  0  0  0  0  0  0  0  0  0
  2  3  2  0
  3  1  1  0
  4  1  2  0
  5  6  2  0
  6  4  1  0
  7  3  1  0
  8  5  1  0
  9  4  1  0
  5  2  1  0
M  END

> <chembl_id>
CHEMBL113550

> <chembl_pref_name>
None

$$$$

     RDKit          2D

 10 10  0  0  0  0  0  0  0  0999 V2000
    0.6657    2.1211    0.0000 C   0  0  0  0  0  0  0  0  0  0  0  0
    0.6657   -1.1789    0.0000 C   0  0  0  0  0  0  0  0  0  0  0  0
   -0.0488   -1.5914    0.0000 C   0  0  0  0  0  0  0  0  0  0  0  0
   -0.7633   -1.1789    0.0000 C   0  0  0  0  0  0  0  0  0  0  0  0
   -0.7633   -0.3539    0.0000 C   0  0  0  0  0  0  0  0  0  0  0  0
    0.6657   -0.3539    0.0000 C   0  0  0  0  0  0  0  0  0  0  0  0
   -0.0488    0.0586    0.0000 C   0  0  0  0  0  0  0  0  0  0  0  0
   -0.0488    0.8836    0.0000 C   0  0  0  0  0  0  0  0  0  0  0  0
    0.6657    1.2961    0.0000 C   0  0  0  0  0  0  0  0  0  0  0  0
   -1.4777    0.0586    0.0000 O   0  0  0  0  0  0  0  0  0  0  0  0
  9  1  1  0
  2  3  2  0
  6  2  1  0
  3  4  1  0
  5  4  2  0
  5  7  1  0
  5 10  1  0
  6  7  2  0
  7  8  1  0
  8  9  1  0
M  END

> <chembl_id>
CHEMBL225569

> <chembl_pref_name>
None

$$$$

     RDKit          2D

  7  7  0  0  0  0  0  0  0  0999 V2000
    2.4916   -4.2049    0.0000 C   0  0  0  0  0  0  0  0  0  0  0  0
    2.4904   -5.0300    0.0000 C   0  0  0  0  0  0  0  0  0  0  0  0
    3.2033   -5.4417    0.0000 N   0  0  0  0  0  0  0  0  0  0  0  0
    3.9178   -5.0295    0.0000 C   0  0  0  0  0  0  0  0  0  0  0  0
    3.9149   -4.2013    0.0000 C   0  0  0  0  0  0  0  0  0  0  0  0
    3.2015   -3.7933    0.0000 N   0  0  0  0  0  0  0  0  0  0  0  0
    4.6309   -5.4397    0.0000 C   0  0  0  0  0  0  0  0  0  0  0  0
  3  4  2  0
  4  5  1  0
  2  3  1  0
  5  6  2  0
  6  1  1  0
  1  2  2  0
  4  7  1  0
M  END

> <chembl_id>
CHEMBL479791

> <chembl_pref_name>
None

$$$$

     RDKit          2D

  9  9  0  0  0  0  0  0  0  0999 V2000
   25.3082  -21.8392    0.0000 N   0  0  0  0  0  0  0  0  0  0  0  0
   25.3071  -22.6664    0.0000 C   0  0  0  0  0  0  0  0  0  0  0  0
   26.0218  -23.0793    0.0000 N   0  0  0  0  0  0  0  0  0  0  0  0
   26.7382  -22.6660    0.0000 C   0  0  0  0  0  0  0  0  0  0  0  0
   26.7353  -21.8356    0.0000 N   0  0  0  0  0  0  0  0  0  0  0  0
   26.0200  -21.4264    0.0000 C   0  0  0  0  0  0  0  0  0  0  0  0
   26.0176  -20.6015    0.0000 N   0  0  0  0  0  0  0  0  0  0  0  0
   27.4532  -23.0773    0.0000 C   0  0  0  0  0  0  0  0  0  0  0  0
   24.5923  -23.0784    0.0000 C   0  0  0  0  0  0  0  0  0  0  0  0
  1  2  2  0
  2  3  1  0
  3  4  2  0
  4  5  1  0
  5  6  2  0
  6  1  1  0
  6  7  1  0
  4  8  1  0
  2  9  1  0
M  END

> <chembl_id>
CHEMBL2271911

> <chembl_pref_name>
None

$$$$

     RDKit          2D

 10 10  0  0  0  0  0  0  0  0999 V2000
   -0.9708   -5.5042    0.0000 N   0  0  0  0  0  0  0  0  0  0  0  0
   -0.2125   -5.8292    0.0000 C   0  0  0  0  0  0  0  0  0  0  0  0
   -1.6333   -5.9000    0.0000 C   0  0  0  0  0  0  0  0  0  0  0  0
   -2.3500   -5.4917    0.0000 N   0  0  0  0  0  0  0  0  0  0  0  0
   -2.3583   -7.1375    0.0000 N   0  0  0  0  0  0  0  0  0  0  0  0
    0.4792   -5.3750    0.0000 N   0  0  0  0  0  0  0  0  0  0  0  0
   -0.1708   -6.6500    0.0000 N   0  0  0  0  0  0  0  0  0  0  0  0
   -1.6375   -6.7250    0.0000 C   0  0  0  0  0  0  0  0  0  0  0  0
   -3.0708   -5.9000    0.0000 C   0  0  0  0  0  0  0  0  0  0  0  0
   -3.0708   -6.7167    0.0000 C   0  0  0  0  0  0  0  0  0  0  0  0
  2  1  1  0
  3  1  1  0
  4  3  2  0
  5  8  2  0
  6  2  2  0
  7  2  1  0
  8  3  1  0
  9  4  1  0
 10  5  1  0
 10  9  2  0
M  END

> <chembl_id>
CHEMBL54990

> <chembl_pref_name>
None

$$$$

     RDKit          2D

  8  8  0  0  0  0  0  0  0  0999 V2000
   -0.0507    0.8348    0.0000 C   0  0  0  0  0  0  0  0  0  0  0  0
   -0.0507    0.0098    0.0000 C   0  0  0  0  0  0  0  0  0  0  0  0
    0.6167   -0.4751    0.0000 C   0  0  0  0  0  0  0  0  0  0  0  0
    0.3618   -1.2597    0.0000 C   0  0  0  0  0  0  0  0  0  0  0  0
   -0.4632   -1.2597    0.0000 C   0  0  0  0  0  0  0  0  0  0  0  0
   -0.7652    1.2473    0.0000 O   0  0  0  0  0  0  0  0  0  0  0  0
    0.6638    1.2473    0.0000 O   0  0  0  0  0  0  0  0  0  0  0  0
   -0.7181   -0.4751    0.0000 O   0  0  0  0  0  0  0  0  0  0  0  0
  1  2  1  0
  1  6  2  0
  1  7  1  0
  2  3  2  0
  2  8  1  0
  3  4  1  0
  4  5  2  0
  5  8  1  0
M  END

> <chembl_id>
CHEMBL1232797

> <chembl_pref_name>
None

$$$$

     RDKit          2D

  9  8  0  0  0  0  0  0  0  0999 V2000
    1.9903  -22.7384    0.0000 Cl  0  0  0  0  0  0  0  0  0  0  0  0
   -0.4053  -24.3497    0.0000 C   0  0  0  0  0  0  0  0  0  0  0  0
   -0.4065  -25.1766    0.0000 C   0  0  0  0  0  0  0  0  0  0  0  0
    0.3079  -25.5892    0.0000 C   0  0  0  0  0  0  0  0  0  0  0  0
    1.0238  -25.1761    0.0000 C   0  0  0  0  0  0  0  0  0  0  0  0
    1.0209  -24.3461    0.0000 C   0  0  0  0  0  0  0  0  0  0  0  0
    0.3061  -23.9373    0.0000 C   0  0  0  0  0  0  0  0  0  0  0  0
    0.3036  -23.1129    0.0000 O   0  0  0  0  0  0  0  0  0  0  0  0
    1.7384  -25.5872    0.0000 N   0  0  0  0  0  0  0  0  0  0  0  0
  5  6  1  0
  6  7  2  0
  7  2  1  0
  3  4  1  0
  7  8  1  0
  5  9  1  0
  4  5  2  0
  2  3  2  0
M  END

> <chembl_id>
CHEMBL376136

> <chembl_pref_name>
3-AMINOPHENOL HYDROCHLORIDE

$$$$

     RDKit          2D

 10 10  0  0  0  0  0  0  0  0999 V2000
   22.6860   -2.9509    0.0000 C   0  0  0  0  0  0  0  0  0  0  0  0
   22.6848   -3.7705    0.0000 C   0  0  0  0  0  0  0  0  0  0  0  0
   23.3929   -4.1794    0.0000 N   0  0  0  0  0  0  0  0  0  0  0  0
   24.1025   -3.7700    0.0000 C   0  0  0  0  0  0  0  0  0  0  0  0
   24.0997   -2.9473    0.0000 C   0  0  0  0  0  0  0  0  0  0  0  0
   23.3911   -2.5421    0.0000 C   0  0  0  0  0  0  0  0  0  0  0  0
   23.3882   -1.7212    0.0000 C   0  0  0  0  0  0  0  0  0  0  0  0
   24.0947   -1.3105    0.0000 O   0  0  0  0  0  0  0  0  0  0  0  0
   22.6793   -1.3147    0.0000 O   0  0  0  0  0  0  0  0  0  0  0  0
   24.8059   -2.5361    0.0000 O   0  0  0  0  0  0  0  0  0  0  0  0
  1  2  2  0
  2  3  1  0
  3  4  2  0
  4  5  1  0
  5  6  2  0
  6  1  1  0
  7  8  1  0
  7  9  2  0
  6  7  1  0
  5 10  1  0
M  END

> <chembl_id>
CHEMBL2335095

> <chembl_pref_name>
None

$$$$

     RDKit          2D

  7  7  0  0  0  0  0  0  0  0999 V2000
    1.1875    1.9833    0.0000 C   0  0  0  0  0  0  0  0  0  0  0  0
    1.1875    1.1583    0.0000 C   0  0  0  0  0  0  0  0  0  0  0  0
    1.8995    0.7500    0.0000 O   0  0  0  0  0  0  0  0  0  0  0  0
    2.6115    1.1583    0.0000 C   0  0  0  0  0  0  0  0  0  0  0  0
    2.6115    1.9833    0.0000 C   0  0  0  0  0  0  0  0  0  0  0  0
    1.8995    2.4000    0.0000 C   0  0  0  0  0  0  0  0  0  0  0  0
    3.3254    0.7448    0.0000 O   0  0  0  0  0  0  0  0  0  0  0  0
  1  2  2  0
  1  6  1  0
  2  3  1  0
  3  4  1  0
  4  5  1  0
  5  6  2  0
  4  7  2  0
M  END

> <chembl_id>
CHEMBL1934663

> <chembl_pref_name>
None

$$$$

     RDKit          2D

  9  9  0  0  0  0  0  0  0  0999 V2000
    8.7457    1.6592    0.0000 C   0  0  0  0  0  0  0  0  0  0  0  0
    7.9246    1.6592    0.0000 C   0  0  0  0  0  0  0  0  0  0  0  0
    9.0046    2.4438    0.0000 C   0  0  0  0  0  0  0  0  0  0  0  0
    8.3371    2.9288    0.0000 S   0  0  0  0  0  0  0  0  0  0  0  0
    7.6698    2.4438    0.0000 C   0  0  0  0  0  0  0  0  0  0  0  0
    9.2290    0.9907    0.0000 C   0  0  0  0  0  0  0  0  0  0  0  0
    8.8918    0.2377    0.0000 O   0  0  0  0  0  0  0  0  0  0  0  0
   10.0498    1.0749    0.0000 N   0  0  0  0  0  0  0  0  0  0  0  0
   10.5331    0.4063    0.0000 O   0  0  0  0  0  0  0  0  0  0  0  0
  4  5  1  0
  5  2  2  0
  1  6  1  0
  2  1  1  0
  6  7  2  0
  1  3  2  0
  6  8  1  0
  3  4  1  0
  8  9  1  0
M  END

> <chembl_id>
CHEMBL246947

> <chembl_pref_name>
None

$$$$

     RDKit          2D

  9  9  0  0  0  0  0  0  0  0999 V2000
    7.7000   -2.7750    0.0000 C   0  0  0  0  0  0  0  0  0  0  0  0
    7.7000   -3.6042    0.0000 C   0  0  0  0  0  0  0  0  0  0  0  0
    6.9875   -2.3667    0.0000 N   0  0  0  0  0  0  0  0  0  0  0  0
    6.9792   -4.0167    0.0000 O   0  0  0  0  0  0  0  0  0  0  0  0
    8.4125   -2.3625    0.0000 C   0  0  0  0  0  0  0  0  0  0  0  0
    8.4125   -4.0167    0.0000 C   0  0  0  0  0  0  0  0  0  0  0  0
    6.9875   -1.5417    0.0000 C   0  0  0  0  0  0  0  0  0  0  0  0
    9.1292   -3.6042    0.0000 C   0  0  0  0  0  0  0  0  0  0  0  0
    9.1292   -2.7750    0.0000 C   0  0  0  0  0  0  0  0  0  0  0  0
  2  1  2  0
  3  1  1  0
  4  2  1  0
  5  1  1  0
  6  2  1  0
  7  3  1  0
  8  9  1  0
  9  5  2  0
  8  6  2  0
M  END

> <chembl_id>
CHEMBL281223

> <chembl_pref_name>
None

$$$$

     RDKit          2D

  8  8  0  0  0  0  0  0  0  0999 V2000
    0.0245   -0.8250    0.0000 C   0  0  0  0  0  0  0  0  0  0  0  0
   -0.6900   -0.4125    0.0000 C   0  0  0  0  0  0  0  0  0  0  0  0
   -0.6900    0.4125    0.0000 C   0  0  0  0  0  0  0  0  0  0  0  0
    0.0245    0.8250    0.0000 C   0  0  0  0  0  0  0  0  0  0  0  0
    0.7390    0.4125    0.0000 C   0  0  0  0  0  0  0  0  0  0  0  0
    0.7390   -0.4125    0.0000 C   0  0  0  0  0  0  0  0  0  0  0  0
    0.0245   -1.6500    0.0000 O   0  0  0  0  0  0  0  0  0  0  0  0
    0.0245    1.6500    0.0000 F   0  0  0  0  0  0  0  0  0  0  0  0
  1  2  2  0
  1  6  1  0
  1  7  1  0
  2  3  1  0
  3  4  2  0
  4  5  1  0
  4  8  1  0
  5  6  2  0
M  END

> <chembl_id>
CHEMBL56226

> <chembl_pref_name>
None

$$$$

     RDKit          2D

  9  9  0  0  0  0  0  0  0  0999 V2000
   -3.3895    0.4985    0.0000 N   0  0  0  0  0  0  0  0  0  0  0  0
   -2.5671    0.4985    0.0000 N   0  0  0  0  0  0  0  0  0  0  0  0
   -2.3111    1.2801    0.0000 C   0  0  0  0  0  0  0  0  0  0  0  0
   -2.9783    1.7653    0.0000 C   0  0  0  0  0  0  0  0  0  0  0  0
   -3.6413    1.2801    0.0000 N   0  0  0  0  0  0  0  0  0  0  0  0
   -1.5252    1.5352    0.0000 C   0  0  0  0  0  0  0  0  0  0  0  0
   -0.9147    0.9840    0.0000 O   0  0  0  0  0  0  0  0  0  0  0  0
   -1.3530    2.3394    0.0000 O   0  0  0  0  0  0  0  0  0  0  0  0
   -4.4236    1.5340    0.0000 C   0  0  0  0  0  0  0  0  0  0  0  0
  4  5  1  0
  5  1  1  0
  1  2  2  0
  2  3  1  0
  6  7  1  0
  6  8  2  0
  3  6  1  0
  3  4  2  0
  5  9  1  0
M  END

> <chembl_id>
CHEMBL2071032

> <chembl_pref_name>
None

$$$$

     RDKit          2D

 10 12  0  0  0  0  0  0  0  0999 V2000
    2.2750   -2.2792    0.0000 O   0  0  0  0  0  0  0  0  0  0  0  0
    1.4292   -2.0250    0.0000 C   0  0  0  0  0  0  0  0  0  0  0  0
    1.9250   -1.3500    0.0000 C   0  0  0  0  0  0  0  0  0  0  0  0
    0.6417   -1.7667    0.0000 C   0  0  0  0  0  0  0  0  0  0  0  0
    0.6417   -0.9375    0.0000 C   0  0  0  0  0  0  0  0  0  0  0  0
    1.4292   -0.6792    0.0000 C   0  0  0  0  0  0  0  0  0  0  0  0
   -0.0708   -2.1792    0.0000 C   0  0  0  0  0  0  0  0  0  0  0  0
   -0.0708   -0.5250    0.0000 C   0  0  0  0  0  0  0  0  0  0  0  0
   -0.7833   -1.7667    0.0000 C   0  0  0  0  0  0  0  0  0  0  0  0
   -0.7833   -0.9375    0.0000 C   0  0  0  0  0  0  0  0  0  0  0  0
  2  1  1  0
  3  1  1  0
  4  2  1  0
  5  6  1  0
  6  3  1  0
  7  4  2  0
  8  5  2  0
  9  7  1  0
 10  8  1  0
  3  2  1  0
  5  4  1  0
 10  9  2  0
M  END

> <chembl_id>
CHEMBL170741

> <chembl_pref_name>
None

$$$$

     RDKit          2D

  5  5  0  0  0  0  0  0  0  0999 V2000
    9.7594  -17.3930    0.0000 O   0  0  0  0  0  0  0  0  0  0  0  0
   10.0144  -18.1776    0.0000 C   0  0  0  0  0  0  0  0  0  0  0  0
    9.3469  -18.6625    0.0000 N   0  0  0  0  0  0  0  0  0  0  0  0
    8.6795  -18.1776    0.0000 C   0  0  0  0  0  0  0  0  0  0  0  0
    8.9344  -17.3930    0.0000 C   0  0  0  0  0  0  0  0  0  0  0  0
  1  2  1  0
  2  3  2  0
  3  4  1  0
  4  5  2  0
  1  5  1  0
M  END

> <chembl_id>
CHEMBL2171710

> <chembl_pref_name>
OXAZOLE

$$$$

     RDKit          2D

  9  9  0  0  0  0  0  0  0  0999 V2000
    0.5291   -5.7875    0.0000 N   0  0  0  0  0  0  0  0  0  0  0  0
    1.3541   -5.7875    0.0000 C   0  0  0  0  0  0  0  0  0  0  0  0
    1.6109   -5.0034    0.0000 C   0  0  0  0  0  0  0  0  0  0  0  0
    0.9416   -4.5167    0.0000 S   0  0  0  0  0  0  0  0  0  0  0  0
    0.2766   -5.0034    0.0000 C   0  0  0  0  0  0  0  0  0  0  0  0
    2.3993   -4.7476    0.0000 C   0  0  0  0  0  0  0  0  0  0  0  0
    3.0116   -5.3005    0.0000 O   0  0  0  0  0  0  0  0  0  0  0  0
    2.5720   -3.9409    0.0000 O   0  0  0  0  0  0  0  0  0  0  0  0
   -0.5081   -4.7488    0.0000 C   0  0  0  0  0  0  0  0  0  0  0  0
  4  5  1  0
  5  1  2  0
  1  2  1  0
  2  3  2  0
  6  7  1  0
  6  8  2  0
  3  6  1  0
  3  4  1  0
  5  9  1  0
M  END

> <chembl_id>
CHEMBL247134

> <chembl_pref_name>
None

$$$$

     RDKit          2D

 10 10  0  0  0  0  0  0  0  0999 V2000
    3.0318    1.1890    0.0000 C   0  0  0  0  0  0  0  0  0  0  0  0
    2.4430    0.3808    0.0000 C   0  0  0  0  0  0  0  0  0  0  0  0
    1.4486    0.4864    0.0000 C   0  0  0  0  0  0  0  0  0  0  0  0
    0.9496    1.3530    0.0000 N   0  0  0  0  0  0  0  0  0  0  0  0
   -0.0288    1.1460    0.0000 O   0  0  0  0  0  0  0  0  0  0  0  0
   -0.1344    0.1518    0.0000 C   0  0  0  0  0  0  0  0  0  0  0  0
   -1.0010   -0.3472    0.0000 C   0  0  0  0  0  0  0  0  0  0  0  0
   -1.8664    0.1538    0.0000 N   0  0  0  0  0  0  0  0  0  0  0  0
   -2.7330   -0.3452    0.0000 C   0  0  0  0  0  0  0  0  0  0  0  0
    0.7786   -0.2560    0.0000 N   0  0  0  0  0  0  0  0  0  0  0  0
  1  2  1  0
  2  3  1  0
  3  4  2  0
  4  5  1  0
  5  6  1  0
  6  7  1  0
  7  8  1  0
  8  9  1  0
  6 10  2  0
 10  3  1  0
M  END

> <chembl_id>
CHEMBL4520549

> <chembl_pref_name>
None

$$$$

     RDKit          2D

  8  8  0  0  0  0  0  0  0  0999 V2000
   -2.8662    0.1686    0.0000 N   0  0  0  0  0  0  0  0  0  0  0  0
   -2.0010   -0.3324    0.0000 C   0  0  0  0  0  0  0  0  0  0  0  0
   -1.1344    0.1666    0.0000 C   0  0  0  0  0  0  0  0  0  0  0  0
   -1.0286    1.1610    0.0000 C   0  0  0  0  0  0  0  0  0  0  0  0
   -0.0504    1.3678    0.0000 S   0  0  0  0  0  0  0  0  0  0  0  0
    0.4486    0.5012    0.0000 C   0  0  0  0  0  0  0  0  0  0  0  0
    1.4430    0.3956    0.0000 N   0  0  0  0  0  0  0  0  0  0  0  0
   -0.2212   -0.2412    0.0000 N   0  0  0  0  0  0  0  0  0  0  0  0
  1  2  1  0
  2  3  1  0
  3  4  2  0
  4  5  1  0
  5  6  1  0
  6  7  1  0
  6  8  2  0
  8  3  1  0
M  END

> <chembl_id>
CHEMBL4587230

> <chembl_pref_name>
None

$$$$

     RDKit          2D

  6  6  0  0  0  0  0  0  0  0999 V2000
    5.2945  -10.6335    0.0000 C   0  0  0  0  0  0  0  0  0  0  0  0
    5.2934  -11.4596    0.0000 C   0  0  0  0  0  0  0  0  0  0  0  0
    6.0071  -11.8718    0.0000 C   0  0  0  0  0  0  0  0  0  0  0  0
    6.7224  -11.4592    0.0000 C   0  0  0  0  0  0  0  0  0  0  0  0
    6.7196  -10.6298    0.0000 N   0  0  0  0  0  0  0  0  0  0  0  0
    6.0053  -10.2214    0.0000 C   0  0  0  0  0  0  0  0  0  0  0  0
  1  2  2  0
  3  4  2  0
  4  5  1  0
  2  3  1  0
  5  6  2  0
  6  1  1  0
M  END

> <chembl_id>
CHEMBL266158

> <chembl_pref_name>
PYRIDINE

$$$$

     RDKit          2D

 10 11  0  0  0  0  0  0  0  0999 V2000
    1.1125   -4.7125    0.0000 C   0  0  0  0  0  0  0  0  0  0  0  0
    1.9500   -4.4375    0.0000 C   0  0  0  0  0  0  0  0  0  0  0  0
    1.9542   -5.8625    0.0000 N   0  0  0  0  0  0  0  0  0  0  0  0
    2.4667   -5.1417    0.0000 O   0  0  0  0  0  0  0  0  0  0  0  0
    1.1250   -5.5917    0.0000 C   0  0  0  0  0  0  0  0  0  0  0  0
   -0.4083   -4.7292    0.0000 N   0  0  0  0  0  0  0  0  0  0  0  0
    2.3792   -3.6667    0.0000 O   0  0  0  0  0  0  0  0  0  0  0  0
    0.3500   -4.2792    0.0000 C   0  0  0  0  0  0  0  0  0  0  0  0
    0.3667   -6.0417    0.0000 C   0  0  0  0  0  0  0  0  0  0  0  0
   -0.4000   -5.6125    0.0000 C   0  0  0  0  0  0  0  0  0  0  0  0
  2  1  2  0
  3  5  2  0
  4  2  1  0
  5  1  1  0
  6  8  1  0
  7  2  1  0
  8  1  1  0
  9  5  1  0
 10  6  1  0
  4  3  1  0
  9 10  1  0
M  END

> <chembl_id>
CHEMBL309688

> <chembl_pref_name>
None

$$$$

     RDKit          2D

 10 10  0  0  0  0  0  0  0  0999 V2000
   -0.0771   -0.0411    0.0000 C   0  0  0  0  0  0  0  0  0  0  0  0
    0.6374   -0.4536    0.0000 C   0  0  0  0  0  0  0  0  0  0  0  0
    0.6374   -1.2786    0.0000 C   0  0  0  0  0  0  0  0  0  0  0  0
   -0.0771   -1.6911    0.0000 C   0  0  0  0  0  0  0  0  0  0  0  0
   -0.7915   -1.2786    0.0000 C   0  0  0  0  0  0  0  0  0  0  0  0
   -0.7915   -0.4536    0.0000 C   0  0  0  0  0  0  0  0  0  0  0  0
   -0.0771    0.7839    0.0000 C   0  0  0  0  0  0  0  0  0  0  0  0
   -0.7915    1.1964    0.0000 O   0  0  0  0  0  0  0  0  0  0  0  0
    0.6374    1.1964    0.0000 N   0  0  0  0  0  0  0  0  0  0  0  0
    0.6374    2.0214    0.0000 O   0  0  0  0  0  0  0  0  0  0  0  0
  1  2  2  0
  1  6  1  0
  7  1  1  0
  2  3  1  0
  3  4  2  0
  4  5  1  0
  5  6  2  0
  7  8  2  0
  7  9  1  0
  9 10  1  0
M  END

> <chembl_id>
CHEMBL16300

> <chembl_pref_name>
BENZOHYDROXAMATE

$$$$

     RDKit          2D

  9  9  0  0  0  0  0  0  0  0999 V2000
    2.8667    1.3083    0.0000 C   0  0  0  0  0  0  0  0  0  0  0  0
    1.2125    1.3083    0.0000 C   0  0  0  0  0  0  0  0  0  0  0  0
    2.4542    0.5958    0.0000 C   0  0  0  0  0  0  0  0  0  0  0  0
    2.4542    2.0208    0.0000 C   0  0  0  0  0  0  0  0  0  0  0  0
    1.6250    0.5958    0.0000 C   0  0  0  0  0  0  0  0  0  0  0  0
    1.6250    2.0208    0.0000 C   0  0  0  0  0  0  0  0  0  0  0  0
    3.6917    1.3083    0.0000 O   0  0  0  0  0  0  0  0  0  0  0  0
    0.3875    1.3083    0.0000 C   0  0  0  0  0  0  0  0  0  0  0  0
    4.1042    0.5958    0.0000 C   0  0  0  0  0  0  0  0  0  0  0  0
  2  6  1  0
  3  1  2  0
  4  1  1  0
  5  3  1  0
  6  4  2  0
  7  1  1  0
  8  2  1  0
  9  7  1  0
  2  5  2  0
M  END

> <chembl_id>
CHEMBL154155

> <chembl_pref_name>
None

$$$$

     RDKit          2D

 10 11  0  0  0  0  0  0  0  0999 V2000
    1.5750    1.0750    0.0000 C   0  0  0  0  0  0  0  0  0  0  0  0
    3.0167    1.0750    0.0000 N   0  0  0  0  0  0  0  0  0  0  0  0
    1.5792    1.9083    0.0000 C   0  0  0  0  0  0  0  0  0  0  0  0
    2.2917    2.3333    0.0000 O   0  0  0  0  0  0  0  0  0  0  0  0
    3.0167    1.9083    0.0000 C   0  0  0  0  0  0  0  0  0  0  0  0
    2.2917    0.6625    0.0000 C   0  0  0  0  0  0  0  0  0  0  0  0
    0.8625    0.6708    0.0000 C   0  0  0  0  0  0  0  0  0  0  0  0
    0.8625    2.3208    0.0000 C   0  0  0  0  0  0  0  0  0  0  0  0
    0.1500    1.0833    0.0000 C   0  0  0  0  0  0  0  0  0  0  0  0
    0.1500    1.9083    0.0000 C   0  0  0  0  0  0  0  0  0  0  0  0
  2  6  1  0
  3  1  2  0
  4  3  1  0
  5  2  1  0
  6  1  1  0
  7  1  1  0
  8  3  1  0
  9  7  2  0
 10  9  1  0
 10  8  2  0
  5  4  1  0
M  END

> <chembl_id>
CHEMBL372615

> <chembl_pref_name>
None

$$$$

     RDKit          2D

  9  9  0  0  0  0  0  0  0  0999 V2000
    1.4192   -0.5311    0.0000 C   0  0  0  0  0  0  0  0  0  0  0  0
    1.4192    0.2939    0.0000 C   0  0  0  0  0  0  0  0  0  0  0  0
    2.1337   -0.9436    0.0000 C   0  0  0  0  0  0  0  0  0  0  0  0
    0.7048   -0.9436    0.0000 C   0  0  0  0  0  0  0  0  0  0  0  0
    2.1337   -1.7686    0.0000 C   0  0  0  0  0  0  0  0  0  0  0  0
    0.7048   -1.7686    0.0000 C   0  0  0  0  0  0  0  0  0  0  0  0
    1.4192   -2.1811    0.0000 C   0  0  0  0  0  0  0  0  0  0  0  0
    0.7048    0.7064    0.0000 C   0  0  0  0  0  0  0  0  0  0  0  0
    2.1337    0.7064    0.0000 C   0  0  0  0  0  0  0  0  0  0  0  0
  1  2  1  0
  1  3  2  0
  1  4  1  0
  2  8  2  0
  2  9  1  0
  3  5  1  0
  4  6  2  0
  5  7  2  0
  6  7  1  0
M  END

> <chembl_id>
CHEMBL1344773

> <chembl_pref_name>
None

$$$$

     RDKit          2D

 11 11  0  0  0  0  0  0  0  0999 V2000
    6.6010    0.2912    0.0000 C   0  0  0  0  0  0  0  0  0  0  0  0
    6.6010   -0.5338    0.0000 C   0  0  0  0  0  0  0  0  0  0  0  0
    7.3155   -0.9463    0.0000 C   0  0  0  0  0  0  0  0  0  0  0  0
    8.0300   -0.5338    0.0000 C   0  0  0  0  0  0  0  0  0  0  0  0
    8.0300    0.2912    0.0000 C   0  0  0  0  0  0  0  0  0  0  0  0
    7.3155    0.7037    0.0000 C   0  0  0  0  0  0  0  0  0  0  0  0
    8.7444    0.7037    0.0000 C   0  0  0  0  0  0  0  0  0  0  0  0
    8.7444    1.5287    0.0000 C   0  0  0  0  0  0  0  0  0  0  0  0
    9.4589    0.2912    0.0000 O   0  0  0  0  0  0  0  0  0  0  0  0
    7.3155    1.5287    0.0000 C   0  0  0  0  0  0  0  0  0  0  0  0
    5.8866   -0.9463    0.0000 C   0  0  0  0  0  0  0  0  0  0  0  0
  5  6  2  0
  6  1  1  0
  1  2  2  0
  5  7  1  0
  3  4  2  0
  7  8  1  0
  7  9  2  0
  4  5  1  0
  6 10  1  0
  2  3  1  0
  2 11  1  0
M  END

> <chembl_id>
CHEMBL541939

> <chembl_pref_name>
None

$$$$

     RDKit          2D

  9  9  0  0  0  0  0  0  0  0999 V2000
   -1.5469   -6.0250    0.0000 C   0  0  0  0  0  0  0  0  0  0  0  0
   -0.8325   -6.4375    0.0000 C   0  0  0  0  0  0  0  0  0  0  0  0
   -0.8325   -7.2625    0.0000 O   0  0  0  0  0  0  0  0  0  0  0  0
   -1.5469   -7.6750    0.0000 C   0  0  0  0  0  0  0  0  0  0  0  0
   -2.2614   -7.2625    0.0000 C   0  0  0  0  0  0  0  0  0  0  0  0
   -2.2614   -6.4375    0.0000 C   0  0  0  0  0  0  0  0  0  0  0  0
   -2.9759   -6.0250    0.0000 O   0  0  0  0  0  0  0  0  0  0  0  0
   -1.5469   -8.5000    0.0000 C   0  0  0  0  0  0  0  0  0  0  0  0
   -1.5469   -5.2000    0.0000 O   0  0  0  0  0  0  0  0  0  0  0  0
  2  3  1  0
  3  4  1  0
  4  5  2  0
  5  6  1  0
  6  7  2  0
  1  2  2  0
  4  8  1  0
  1  6  1  0
  1  9  1  0
M  END

> <chembl_id>
CHEMBL119083

> <chembl_pref_name>
None

$$$$

     RDKit          2D

  7  7  0  0  0  0  0  0  0  0999 V2000
    9.9542   -4.2000    0.0000 C   0  0  0  0  0  0  0  0  0  0  0  0
    9.9542   -5.0250    0.0000 C   0  0  0  0  0  0  0  0  0  0  0  0
   10.6662   -5.4333    0.0000 O   0  0  0  0  0  0  0  0  0  0  0  0
   11.3782   -5.0250    0.0000 C   0  0  0  0  0  0  0  0  0  0  0  0
   11.3782   -4.2000    0.0000 C   0  0  0  0  0  0  0  0  0  0  0  0
   10.6662   -3.7833    0.0000 C   0  0  0  0  0  0  0  0  0  0  0  0
   12.0921   -5.4385    0.0000 S   0  0  0  0  0  0  0  0  0  0  0  0
  1  2  2  0
  1  6  1  0
  2  3  1  0
  3  4  1  0
  4  5  1  0
  5  6  2  0
  4  7  2  0
M  END

> <chembl_id>
CHEMBL1934664

> <chembl_pref_name>
None

$$$$

     RDKit          2D

 10 10  0  0  0  0  0  0  0  0999 V2000
   22.6616   -2.5007    0.0000 C   0  0  0  0  0  0  0  0  0  0  0  0
   23.0702   -3.2057    0.0000 O   0  0  0  0  0  0  0  0  0  0  0  0
   20.6145   -1.7916    0.0000 C   0  0  0  0  0  0  0  0  0  0  0  0
   21.4358   -1.7916    0.0000 C   0  0  0  0  0  0  0  0  0  0  0  0
   21.8444   -2.5007    0.0000 C   0  0  0  0  0  0  0  0  0  0  0  0
   21.4358   -3.2057    0.0000 C   0  0  0  0  0  0  0  0  0  0  0  0
   20.6145   -3.2057    0.0000 C   0  0  0  0  0  0  0  0  0  0  0  0
   20.2059   -2.5007    0.0000 N   0  0  0  0  0  0  0  0  0  0  0  0
   23.0702   -1.7916    0.0000 C   0  0  0  0  0  0  0  0  0  0  0  0
   22.6616   -1.0825    0.0000 C   0  0  0  0  0  0  0  0  0  0  0  0
  1  2  2  0
  3  4  1  0
  4  5  2  0
  5  6  1  0
  6  7  2  0
  7  8  1  0
  3  8  2  0
  1  5  1  0
  9 10  1  0
  1  9  1  0
M  END

> <chembl_id>
CHEMBL2251614

> <chembl_pref_name>
ETHYL 4-PYRIDYLKETONE

$$$$

     RDKit          2D

  9  9  0  0  0  0  0  0  0  0999 V2000
   -3.6542   -9.4859    0.0000 C   0  0  0  0  0  0  0  0  0  0  0  0
   -2.9743   -9.9530    0.0000 N   0  0  0  0  0  0  0  0  0  0  0  0
   -2.3199   -9.4507    0.0000 C   0  0  0  0  0  0  0  0  0  0  0  0
   -2.5953   -8.6728    0.0000 N   0  0  0  0  0  0  0  0  0  0  0  0
   -3.4200   -8.6949    0.0000 S   0  0  0  0  0  0  0  0  0  0  0  0
   -1.5288   -9.6849    0.0000 O   0  0  0  0  0  0  0  0  0  0  0  0
   -4.4311   -9.7604    0.0000 N   0  0  0  0  0  0  0  0  0  0  0  0
   -5.1502   -9.3561    0.0000 C   0  0  0  0  0  0  0  0  0  0  0  0
   -2.1689   -7.9665    0.0000 C   0  0  0  0  0  0  0  0  0  0  0  0
  4  5  1  0
  5  1  1  0
  1  2  2  0
  3  6  2  0
  1  7  1  0
  2  3  1  0
  7  8  1  0
  3  4  1  0
  4  9  1  0
M  END

> <chembl_id>
CHEMBL407549

> <chembl_pref_name>
None

$$$$

     RDKit          2D

 10 10  0  0  0  0  0  0  0  0999 V2000
   17.3272  -25.3190    0.0000 C   0  0  0  0  0  0  0  0  0  0  0  0
   20.0954  -24.4173    0.0000 C   0  0  0  0  0  0  0  0  0  0  0  0
   17.9875  -24.0780    0.0000 C   0  0  0  0  0  0  0  0  0  0  0  0
   18.0337  -24.8978    0.0000 N   0  0  0  0  0  0  0  0  0  0  0  0
   18.8281  -25.1053    0.0000 C   0  0  0  0  0  0  0  0  0  0  0  0
   19.2704  -24.4136    0.0000 N   0  0  0  0  0  0  0  0  0  0  0  0
   18.7469  -23.7798    0.0000 C   0  0  0  0  0  0  0  0  0  0  0  0
   16.6070  -24.9164    0.0000 C   0  0  0  0  0  0  0  0  0  0  0  0
   15.8983  -25.3389    0.0000 C   0  0  0  0  0  0  0  0  0  0  0  0
   15.1781  -24.9364    0.0000 C   0  0  0  0  0  0  0  0  0  0  0  0
  4  5  1  0
  3  4  1  0
  5  6  2  0
  6  7  1  0
  7  3  2  0
  6  2  1  0
  4  1  1  0
  1  8  1  0
  8  9  1  0
  9 10  1  0
M  CHG  1   6   1
M  END

> <chembl_id>
CHEMBL1198608

> <chembl_pref_name>
None

$$$$

     RDKit          2D

  6  6  0  0  0  0  0  0  0  0999 V2000
   20.9745   -8.0110    0.0000 C   0  0  0  0  0  0  0  0  0  0  0  0
   21.7917   -8.0110    0.0000 N   0  0  0  0  0  0  0  0  0  0  0  0
   22.0461   -7.2343    0.0000 C   0  0  0  0  0  0  0  0  0  0  0  0
   21.3831   -6.7521    0.0000 N   0  0  0  0  0  0  0  0  0  0  0  0
   20.7244   -7.2343    0.0000 C   0  0  0  0  0  0  0  0  0  0  0  0
   22.8236   -6.9828    0.0000 N   0  0  0  0  0  0  0  0  0  0  0  0
  1  2  1  0
  2  3  1  0
  3  4  2  0
  4  5  1  0
  5  1  2  0
  3  6  1  0
M  END

> <chembl_id>
CHEMBL291627

> <chembl_pref_name>
None

$$$$

     RDKit          2D

  9 10  0  0  0  0  0  0  0  0999 V2000
    5.8039   -3.6071    0.0000 S   0  0  0  0  0  0  0  0  0  0  0  0
    6.5189   -3.1885    0.0000 C   0  0  0  0  0  0  0  0  0  0  0  0
    6.5189   -4.8456    0.0000 C   0  0  0  0  0  0  0  0  0  0  0  0
    5.8068   -4.4343    0.0000 C   0  0  0  0  0  0  0  0  0  0  0  0
    7.2340   -3.6071    0.0000 C   0  0  0  0  0  0  0  0  0  0  0  0
    7.2340   -4.4320    0.0000 C   0  0  0  0  0  0  0  0  0  0  0  0
    8.0185   -4.6870    0.0000 N   0  0  0  0  0  0  0  0  0  0  0  0
    8.5036   -4.0196    0.0000 N   0  0  0  0  0  0  0  0  0  0  0  0
    8.0186   -3.3522    0.0000 C   0  0  0  0  0  0  0  0  0  0  0  0
  1  4  1  0
  1  2  1  0
  3  6  1  0
  5  2  1  0
  3  4  1  0
  5  6  2  0
  6  7  1  0
  7  8  1  0
  8  9  2  0
  9  5  1  0
M  END

> <chembl_id>
CHEMBL3244630

> <chembl_pref_name>
None

$$$$

     RDKit          2D

  9  9  0  0  0  0  0  0  0  0999 V2000
   12.4189  -16.4053    0.0000 N   0  0  0  0  0  0  0  0  0  0  0  0
   12.9230  -17.0626    0.0000 N   0  0  0  0  0  0  0  0  0  0  0  0
   12.4563  -17.7447    0.0000 C   0  0  0  0  0  0  0  0  0  0  0  0
   11.6625  -17.5142    0.0000 C   0  0  0  0  0  0  0  0  0  0  0  0
   11.6384  -16.6851    0.0000 C   0  0  0  0  0  0  0  0  0  0  0  0
   11.0101  -18.0192    0.0000 C   0  0  0  0  0  0  0  0  0  0  0  0
   10.2466  -17.7067    0.0000 C   0  0  0  0  0  0  0  0  0  0  0  0
    9.5943  -18.2116    0.0000 C   0  0  0  0  0  0  0  0  0  0  0  0
    8.8308  -17.8991    0.0000 O   0  0  0  0  0  0  0  0  0  0  0  0
  1  2  1  0
  2  3  2  0
  3  4  1  0
  4  5  2  0
  1  5  1  0
  4  6  1  0
  6  7  1  0
  7  8  1  0
  8  9  1  0
M  END

> <chembl_id>
CHEMBL3276275

> <chembl_pref_name>
None

$$$$

     RDKit          2D

 10 10  0  0  0  0  0  0  0  0999 V2000
    5.6917   -6.8000    0.0000 C   0  0  0  0  0  0  0  0  0  0  0  0
    5.1167   -6.6125    0.0000 N   0  0  0  0  0  0  0  0  0  0  0  0
    6.6625   -6.8000    0.0000 N   0  0  0  0  0  0  0  0  0  0  0  0
    5.8750   -7.3667    0.0000 C   0  0  0  0  0  0  0  0  0  0  0  0
    6.1792   -6.4417    0.0000 C   0  0  0  0  0  0  0  0  0  0  0  0
    6.4750   -7.3667    0.0000 O   0  0  0  0  0  0  0  0  0  0  0  0
    4.9917   -6.0250    0.0000 O   0  0  0  0  0  0  0  0  0  0  0  0
    4.6667   -7.0167    0.0000 O   0  0  0  0  0  0  0  0  0  0  0  0
    5.5167   -7.8542    0.0000 C   0  0  0  0  0  0  0  0  0  0  0  0
    6.1792   -5.8417    0.0000 C   0  0  0  0  0  0  0  0  0  0  0  0
  2  1  1  0
  3  5  2  0
  4  1  2  0
  5  1  1  0
  6  4  1  0
  7  2  1  0
  8  2  2  0
  9  4  1  0
 10  5  1  0
  3  6  1  0
M  CHG  2   2   1   7  -1
M  END

> <chembl_id>
CHEMBL109851

> <chembl_pref_name>
None

$$$$

     RDKit          2D

  9  9  0  0  0  0  0  0  0  0999 V2000
    9.2262   -4.0516    0.0000 N   0  0  0  0  0  0  0  0  0  0  0  0
    9.4767   -4.8331    0.0000 N   0  0  0  0  0  0  0  0  0  0  0  0
    8.8134   -5.3132    0.0000 C   0  0  0  0  0  0  0  0  0  0  0  0
    8.1501   -4.8331    0.0000 C   0  0  0  0  0  0  0  0  0  0  0  0
    8.4047   -4.0516    0.0000 C   0  0  0  0  0  0  0  0  0  0  0  0
    8.8134   -6.1383    0.0000 C   0  0  0  0  0  0  0  0  0  0  0  0
    8.0989   -6.5508    0.0000 C   0  0  0  0  0  0  0  0  0  0  0  0
    7.3844   -6.1383    0.0000 C   0  0  0  0  0  0  0  0  0  0  0  0
    7.3844   -5.3132    0.0000 O   0  0  0  0  0  0  0  0  0  0  0  0
  1  2  1  0
  2  3  2  0
  3  4  1  0
  4  5  2  0
  1  5  1  0
  3  6  1  0
  6  7  1  0
  7  8  1  0
  8  9  1  0
M  END

> <chembl_id>
CHEMBL3275949

> <chembl_pref_name>
None

$$$$

     RDKit          2D

 11 12  0  0  0  0  0  0  0  0999 V2000
   -3.6292    1.7500    0.0000 C   0  0  0  0  0  0  0  0  0  0  0  0
   -3.6292    0.9250    0.0000 C   0  0  0  0  0  0  0  0  0  0  0  0
   -2.9171    0.5167    0.0000 C   0  0  0  0  0  0  0  0  0  0  0  0
   -2.9171    2.1667    0.0000 C   0  0  0  0  0  0  0  0  0  0  0  0
   -2.2051    1.7500    0.0000 C   0  0  0  0  0  0  0  0  0  0  0  0
   -2.2041    0.9250    0.0000 C   0  0  0  0  0  0  0  0  0  0  0  0
   -1.4930    0.5157    0.0000 C   0  0  0  0  0  0  0  0  0  0  0  0
   -0.7785    0.9268    0.0000 N   0  0  0  0  0  0  0  0  0  0  0  0
   -0.7795    1.7518    0.0000 C   0  0  0  0  0  0  0  0  0  0  0  0
   -1.4951    2.1657    0.0000 C   0  0  0  0  0  0  0  0  0  0  0  0
   -1.4931   -0.3093    0.0000 C   0  0  0  0  0  0  0  0  0  0  0  0
  1  2  1  0
  1  4  2  0
  2  3  2  0
  3  6  1  0
  5  4  1  0
  5 10  1  0
  6  7  1  0
  7  8  1  0
  8  9  1  0
  9 10  1  0
  5  6  2  0
  7 11  1  0
M  END

> <chembl_id>
CHEMBL95456

> <chembl_pref_name>
None

$$$$

     RDKit          2D

  8  8  0  0  0  0  0  0  0  0999 V2000
   19.1420   -3.4335    0.0000 C   0  0  0  0  0  0  0  0  0  0  0  0
   19.9592   -3.4339    0.0000 C   0  0  0  0  0  0  0  0  0  0  0  0
   20.2136   -2.6572    0.0000 N   0  0  0  0  0  0  0  0  0  0  0  0
   19.5506   -2.1750    0.0000 N   0  0  0  0  0  0  0  0  0  0  0  0
   18.8919   -2.6572    0.0000 C   0  0  0  0  0  0  0  0  0  0  0  0
   19.5494   -1.3579    0.0000 O   0  0  0  0  0  0  0  0  0  0  0  0
   18.7240   -4.1357    0.0000 C   0  0  0  0  0  0  0  0  0  0  0  0
   17.9068   -4.1247    0.0000 N   0  0  0  0  0  0  0  0  0  0  0  0
  1  2  1  0
  2  3  2  0
  3  4  1  0
  4  5  1  0
  5  1  2  0
  4  6  1  0
  1  7  1  0
  7  8  1  0
M  END

> <chembl_id>
CHEMBL2315213

> <chembl_pref_name>
None

$$$$

     RDKit          2D

 11 11  0  0  0  0  0  0  0  0999 V2000
    1.5917   -1.0125    0.0000 C   0  0  0  0  0  0  0  0  0  0  0  0
    1.5917   -0.1292    0.0000 C   0  0  0  0  0  0  0  0  0  0  0  0
    1.6000   -1.8917    0.0000 C   0  0  0  0  0  0  0  0  0  0  0  0
    0.8375   -2.3417    0.0000 C   0  0  0  0  0  0  0  0  0  0  0  0
    3.1292   -1.8917    0.0000 N   0  0  0  0  0  0  0  0  0  0  0  0
    2.3667   -2.3292    0.0000 C   0  0  0  0  0  0  0  0  0  0  0  0
    0.0667   -1.9000    0.0000 C   0  0  0  0  0  0  0  0  0  0  0  0
    0.8375   -3.2292    0.0000 C   0  0  0  0  0  0  0  0  0  0  0  0
   -0.6958   -2.3417    0.0000 C   0  0  0  0  0  0  0  0  0  0  0  0
    0.0667   -3.6667    0.0000 C   0  0  0  0  0  0  0  0  0  0  0  0
   -0.6958   -3.2292    0.0000 C   0  0  0  0  0  0  0  0  0  0  0  0
  2  1  3  0
  3  1  1  0
  4  3  1  0
  5  6  1  0
  6  3  1  0
  7  4  2  0
  8  4  1  0
  9  7  1  0
 10  8  2  0
 11 10  1  0
 11  9  2  0
M  END

> <chembl_id>
CHEMBL164375

> <chembl_pref_name>
None

$$$$

     RDKit          2D

 11 11  0  0  0  0  0  0  0  0999 V2000
   -2.6833    2.3833    0.0000 C   0  0  0  0  0  0  0  0  0  0  0  0
   -3.3958    2.7958    0.0000 O   0  0  0  0  0  0  0  0  0  0  0  0
   -2.6750    1.5583    0.0000 C   0  0  0  0  0  0  0  0  0  0  0  0
   -1.9708    2.7958    0.0000 C   0  0  0  0  0  0  0  0  0  0  0  0
   -3.3875    1.1375    0.0000 C   0  0  0  0  0  0  0  0  0  0  0  0
   -1.9583    1.1458    0.0000 C   0  0  0  0  0  0  0  0  0  0  0  0
   -1.2500    2.3833    0.0000 C   0  0  0  0  0  0  0  0  0  0  0  0
   -0.5375    2.8000    0.0000 C   0  0  0  0  0  0  0  0  0  0  0  0
   -1.9583    0.3125    0.0000 C   0  0  0  0  0  0  0  0  0  0  0  0
   -3.3875    0.3125    0.0000 C   0  0  0  0  0  0  0  0  0  0  0  0
   -2.6750   -0.0917    0.0000 C   0  0  0  0  0  0  0  0  0  0  0  0
  2  1  2  0
  3  1  1  0
  4  1  1  0
  5  3  1  0
  6  3  2  0
  7  4  1  0
  8  7  1  0
  9  6  1  0
 10  5  2  0
 11  9  2  0
 10 11  1  0
M  END

> <chembl_id>
CHEMBL193524

> <chembl_pref_name>
BUTYROPHENONE

$$$$

     RDKit          2D

 11 11  0  0  0  0  0  0  0  0999 V2000
    2.9542   -2.6667    0.0000 C   0  0  0  0  0  0  0  0  0  0  0  0
    3.6667   -3.0792    0.0000 N   0  0  0  0  0  0  0  0  0  0  0  0
    4.3792   -3.4917    0.0000 N   0  0  0  0  0  0  0  0  0  0  0  0
    2.9542   -1.8417    0.0000 C   0  0  0  0  0  0  0  0  0  0  0  0
    2.2375   -3.0792    0.0000 C   0  0  0  0  0  0  0  0  0  0  0  0
    2.2375   -1.4292    0.0000 C   0  0  0  0  0  0  0  0  0  0  0  0
    1.5250   -2.6667    0.0000 C   0  0  0  0  0  0  0  0  0  0  0  0
    2.2292   -0.6042    0.0000 C   0  0  0  0  0  0  0  0  0  0  0  0
    1.5250   -1.8417    0.0000 C   0  0  0  0  0  0  0  0  0  0  0  0
    1.5167   -0.1917    0.0000 O   0  0  0  0  0  0  0  0  0  0  0  0
    2.9500   -0.1917    0.0000 O   0  0  0  0  0  0  0  0  0  0  0  0
  1  2  1  0
  2  3  3  0
  4  1  2  0
  5  1  1  0
  6  4  1  0
  7  5  2  0
  8  6  1  0
  9  6  2  0
  9  7  1  0
 10  8  1  0
 11  8  2  0
M  CHG  2   2   1  10  -1
M  END

> <chembl_id>
CHEMBL71197

> <chembl_pref_name>
None

$$$$

     RDKit          2D

 10 10  0  0  0  0  0  0  0  0999 V2000
    0.0375    1.6000    0.0000 C   0  0  0  0  0  0  0  0  0  0  0  0
   -3.0375    0.2875    0.0000 N   0  0  0  0  0  0  0  0  0  0  0  0
   -1.7083    0.2875    0.0000 C   0  0  0  0  0  0  0  0  0  0  0  0
   -1.9708   -0.5000    0.0000 N   0  0  0  0  0  0  0  0  0  0  0  0
   -2.7875   -0.5000    0.0000 C   0  0  0  0  0  0  0  0  0  0  0  0
   -2.3750    0.7708    0.0000 C   0  0  0  0  0  0  0  0  0  0  0  0
    0.6500    1.0500    0.0000 N   0  0  0  0  0  0  0  0  0  0  0  0
   -0.7458    1.3458    0.0000 N   0  0  0  0  0  0  0  0  0  0  0  0
   -0.9208    0.5458    0.0000 C   0  0  0  0  0  0  0  0  0  0  0  0
    0.2042    2.4083    0.0000 N   0  0  0  0  0  0  0  0  0  0  0  0
  2  6  1  0
  3  9  1  0
  4  3  1  0
  5  4  2  0
  6  3  2  0
  7  1  2  0
  8  1  1  0
  9  8  1  0
 10  1  1  0
  5  2  1  0
M  END

> <chembl_id>
CHEMBL322892

> <chembl_pref_name>
None

$$$$

     RDKit          2D

 10 10  0  0  0  0  0  0  0  0999 V2000
    1.8311   -2.1007    0.0000 C   0  0  0  0  0  0  0  0  0  0  0  0
    1.8299   -2.9203    0.0000 C   0  0  0  0  0  0  0  0  0  0  0  0
    2.5380   -3.3292    0.0000 N   0  0  0  0  0  0  0  0  0  0  0  0
    3.2476   -2.9198    0.0000 C   0  0  0  0  0  0  0  0  0  0  0  0
    3.2448   -2.0971    0.0000 C   0  0  0  0  0  0  0  0  0  0  0  0
    2.5362   -1.6919    0.0000 N   0  0  0  0  0  0  0  0  0  0  0  0
    1.1219   -3.3283    0.0000 N   0  0  0  0  0  0  0  0  0  0  0  0
    3.9510   -1.6859    0.0000 C   0  0  0  0  0  0  0  0  0  0  0  0
    4.6602   -2.0918    0.0000 N   0  0  0  0  0  0  0  0  0  0  0  0
    3.9479   -0.8687    0.0000 O   0  0  0  0  0  0  0  0  0  0  0  0
  1  2  2  0
  2  3  1  0
  3  4  2  0
  4  5  1  0
  5  6  2  0
  6  1  1  0
  2  7  1  0
  5  8  1  0
  8  9  1  0
  8 10  2  0
M  END

> <chembl_id>
CHEMBL3105664

> <chembl_pref_name>
None

$$$$

     RDKit          2D

 11 11  0  0  0  0  0  0  0  0999 V2000
    4.7119  -14.3545    0.0000 C   0  0  0  0  0  0  0  0  0  0  0  0
    4.7107  -15.1740    0.0000 C   0  0  0  0  0  0  0  0  0  0  0  0
    5.4188  -15.5830    0.0000 C   0  0  0  0  0  0  0  0  0  0  0  0
    6.1284  -15.1735    0.0000 C   0  0  0  0  0  0  0  0  0  0  0  0
    6.1256  -14.3509    0.0000 C   0  0  0  0  0  0  0  0  0  0  0  0
    5.4170  -13.9456    0.0000 C   0  0  0  0  0  0  0  0  0  0  0  0
    4.0027  -15.5820    0.0000 N   0  0  0  0  0  0  0  0  0  0  0  0
    3.2953  -15.1729    0.0000 C   0  0  0  0  0  0  0  0  0  0  0  0
    2.5873  -15.5809    0.0000 C   0  0  0  0  0  0  0  0  0  0  0  0
    1.8791  -15.9898    0.0000 C   0  0  0  0  0  0  0  0  0  0  0  0
    3.2960  -14.3557    0.0000 O   0  0  0  0  0  0  0  0  0  0  0  0
  1  2  2  0
  2  3  1  0
  3  4  2  0
  4  5  1  0
  5  6  2  0
  6  1  1  0
  2  7  1  0
  7  8  1  0
  8  9  1  0
  9 10  3  0
  8 11  2  0
M  END

> <chembl_id>
CHEMBL2314005

> <chembl_pref_name>
None

$$$$

     RDKit          2D

  9  9  0  0  0  0  0  0  0  0999 V2000
   -0.1958    0.0375    0.0000 C   0  0  0  0  0  0  0  0  0  0  0  0
   -1.0208    0.0375    0.0000 C   0  0  0  0  0  0  0  0  0  0  0  0
   -1.2750    0.8333    0.0000 N   0  0  0  0  0  0  0  0  0  0  0  0
    0.2917   -0.6292    0.0000 C   0  0  0  0  0  0  0  0  0  0  0  0
   -0.6083    1.3125    0.0000 N   0  0  0  0  0  0  0  0  0  0  0  0
    0.0667    0.8333    0.0000 C   0  0  0  0  0  0  0  0  0  0  0  0
    1.1167   -0.5417    0.0000 O   0  0  0  0  0  0  0  0  0  0  0  0
   -1.5083   -0.6292    0.0000 O   0  0  0  0  0  0  0  0  0  0  0  0
   -0.0458   -1.3792    0.0000 O   0  0  0  0  0  0  0  0  0  0  0  0
  2  1  1  0
  3  2  2  0
  4  1  1  0
  5  6  1  0
  6  1  2  0
  7  4  2  0
  8  2  1  0
  9  4  1  0
  5  3  1  0
M  END

> <chembl_id>
CHEMBL67480

> <chembl_pref_name>
None

$$$$

     RDKit          2D

 10 10  0  0  0  0  0  0  0  0999 V2000
   -2.7571  -25.7978    0.0000 C   0  0  0  0  0  0  0  0  0  0  0  0
   -2.0411  -26.2076    0.0000 O   0  0  0  0  0  0  0  0  0  0  0  0
   -2.7602  -24.9728    0.0000 N   0  0  0  0  0  0  0  0  0  0  0  0
   -3.4700  -26.2130    0.0000 C   0  0  0  0  0  0  0  0  0  0  0  0
   -4.1854  -25.8039    0.0000 C   0  0  0  0  0  0  0  0  0  0  0  0
   -3.4672  -27.0435    0.0000 C   0  0  0  0  0  0  0  0  0  0  0  0
   -4.8973  -26.2166    0.0000 C   0  0  0  0  0  0  0  0  0  0  0  0
   -4.1836  -27.4569    0.0000 N   0  0  0  0  0  0  0  0  0  0  0  0
   -4.8984  -27.0440    0.0000 C   0  0  0  0  0  0  0  0  0  0  0  0
   -2.0473  -24.5576    0.0000 O   0  0  0  0  0  0  0  0  0  0  0  0
  1  2  2  0
  1  3  1  0
  4  1  1  0
  4  5  2  0
  6  4  1  0
  5  7  1  0
  8  6  2  0
  7  9  2  0
  9  8  1  0
  3 10  1  0
M  END

> <chembl_id>
CHEMBL504369

> <chembl_pref_name>
NICOXAMAT

$$$$

     RDKit          2D

 10 10  0  0  0  0  0  0  0  0999 V2000
    1.4042   -2.1792    0.0000 N   0  0  0  0  0  0  0  0  0  0  0  0
    0.7375   -2.6667    0.0000 N   0  0  0  0  0  0  0  0  0  0  0  0
    2.0917   -0.1042    0.0000 C   0  0  0  0  0  0  0  0  0  0  0  0
    2.1000   -0.9292    0.0000 C   0  0  0  0  0  0  0  0  0  0  0  0
    1.8167   -3.4542    0.0000 C   0  0  0  0  0  0  0  0  0  0  0  0
    2.0792   -2.6667    0.0000 C   0  0  0  0  0  0  0  0  0  0  0  0
    0.9917   -3.4542    0.0000 C   0  0  0  0  0  0  0  0  0  0  0  0
    1.3792    0.2958    0.0000 O   0  0  0  0  0  0  0  0  0  0  0  0
    1.3917   -1.3542    0.0000 C   0  0  0  0  0  0  0  0  0  0  0  0
    2.8042    0.3125    0.0000 O   0  0  0  0  0  0  0  0  0  0  0  0
  2  1  1  0
  3  4  1  0
  4  9  1  0
  5  6  2  0
  6  1  1  0
  7  2  2  0
  8  3  2  0
  9  1  1  0
 10  3  1  0
  5  7  1  0
M  END

> <chembl_id>
CHEMBL281127

> <chembl_pref_name>
None

$$$$

     RDKit          2D

 10 10  0  0  0  0  0  0  0  0999 V2000
   -0.6458   -2.3792    0.0000 N   0  0  0  0  0  0  0  0  0  0  0  0
   -0.6458   -2.9792    0.0000 C   0  0  0  0  0  0  0  0  0  0  0  0
   -0.1250   -2.0750    0.0000 O   0  0  0  0  0  0  0  0  0  0  0  0
   -1.1708   -2.0792    0.0000 O   0  0  0  0  0  0  0  0  0  0  0  0
   -1.1583   -3.2792    0.0000 C   0  0  0  0  0  0  0  0  0  0  0  0
   -0.1208   -3.2792    0.0000 C   0  0  0  0  0  0  0  0  0  0  0  0
   -0.6458   -4.1792    0.0000 C   0  0  0  0  0  0  0  0  0  0  0  0
   -0.1208   -3.8792    0.0000 C   0  0  0  0  0  0  0  0  0  0  0  0
   -1.1583   -3.8792    0.0000 C   0  0  0  0  0  0  0  0  0  0  0  0
   -0.6458   -4.7792    0.0000 F   0  0  0  0  0  0  0  0  0  0  0  0
  2  1  1  0
  3  1  1  0
  4  1  2  0
  5  2  1  0
  6  2  2  0
  7  8  2  0
  8  6  1  0
  9  5  2  0
 10  7  1  0
  9  7  1  0
M  CHG  2   1   1   3  -1
M  END

> <chembl_id>
CHEMBL163729

> <chembl_pref_name>
None

$$$$

     RDKit          2D

 10 10  0  0  0  0  0  0  0  0999 V2000
   14.2623   -8.2792    0.0000 C   0  0  0  0  0  0  0  0  0  0  0  0
   14.2611   -9.0987    0.0000 C   0  0  0  0  0  0  0  0  0  0  0  0
   14.9692   -9.5077    0.0000 C   0  0  0  0  0  0  0  0  0  0  0  0
   15.6788   -9.0982    0.0000 C   0  0  0  0  0  0  0  0  0  0  0  0
   15.6760   -8.2756    0.0000 C   0  0  0  0  0  0  0  0  0  0  0  0
   14.9674   -7.8703    0.0000 C   0  0  0  0  0  0  0  0  0  0  0  0
   16.3822   -7.8643    0.0000 C   0  0  0  0  0  0  0  0  0  0  0  0
   17.0914   -8.2703    0.0000 C   0  0  0  0  0  0  0  0  0  0  0  0
   17.7976   -7.8590    0.0000 C   0  0  0  0  0  0  0  0  0  0  0  0
   18.5024   -7.4476    0.0000 N   0  0  0  0  0  0  0  0  0  0  0  0
  1  2  2  0
  2  3  1  0
  3  4  2  0
  4  5  1  0
  5  6  2  0
  6  1  1  0
  5  7  1  0
  7  8  2  0
  8  9  1  0
  9 10  3  0
M  END

> <chembl_id>
CHEMBL2387747

> <chembl_pref_name>
CINNAMONITRILE

$$$$

     RDKit          2D

 10 10  0  0  0  0  0  0  0  0999 V2000
   -2.1625   -2.9542    0.0000 N   0  0  0  0  0  0  0  0  0  0  0  0
   -1.4458   -1.7125    0.0000 C   0  0  0  0  0  0  0  0  0  0  0  0
   -0.7333   -1.2917    0.0000 C   0  0  0  0  0  0  0  0  0  0  0  0
   -0.0208   -1.7042    0.0000 N   0  0  0  0  0  0  0  0  0  0  0  0
   -1.4458   -2.5417    0.0000 C   0  0  0  0  0  0  0  0  0  0  0  0
   -2.8750   -2.5417    0.0000 C   0  0  0  0  0  0  0  0  0  0  0  0
   -2.1625   -1.3000    0.0000 C   0  0  0  0  0  0  0  0  0  0  0  0
    0.6917   -1.2917    0.0000 C   0  0  0  0  0  0  0  0  0  0  0  0
   -0.0208   -2.5292    0.0000 C   0  0  0  0  0  0  0  0  0  0  0  0
   -2.8750   -1.7125    0.0000 C   0  0  0  0  0  0  0  0  0  0  0  0
  2  5  1  0
  3  2  1  0
  4  3  1  0
  5  1  2  0
  6  1  1  0
  7 10  1  0
  8  4  1  0
  9  4  1  0
 10  6  2  0
  2  7  2  0
M  END

> <chembl_id>
CHEMBL331904

> <chembl_pref_name>
None

$$$$

     RDKit          2D

 10 10  0  0  0  0  0  0  0  0999 V2000
   19.5003    0.6206    0.0000 N   0  0  0  0  0  0  0  0  0  0  0  0
   20.3251    0.6206    0.0000 C   0  0  0  0  0  0  0  0  0  0  0  0
   20.5819    1.4047    0.0000 C   0  0  0  0  0  0  0  0  0  0  0  0
   19.9126    1.8913    0.0000 C   0  0  0  0  0  0  0  0  0  0  0  0
   19.2478    1.4047    0.0000 N   0  0  0  0  0  0  0  0  0  0  0  0
   21.3701    1.6603    0.0000 C   0  0  0  0  0  0  0  0  0  0  0  0
   21.9822    1.1076    0.0000 O   0  0  0  0  0  0  0  0  0  0  0  0
   21.5428    2.4671    0.0000 O   0  0  0  0  0  0  0  0  0  0  0  0
   19.9114    2.7161    0.0000 C   0  0  0  0  0  0  0  0  0  0  0  0
   18.4633    1.6591    0.0000 C   0  0  0  0  0  0  0  0  0  0  0  0
  5  1  1  0
  1  2  2  0
  2  3  1  0
  6  7  1  0
  6  8  2  0
  3  6  1  0
  3  4  2  0
  4  9  1  0
  4  5  1  0
  5 10  1  0
M  END

> <chembl_id>
CHEMBL2071016

> <chembl_pref_name>
None

$$$$

     RDKit          2D

  9  9  0  0  0  0  0  0  0  0999 V2000
    4.9292   -4.3792    0.0000 N   0  0  0  0  0  0  0  0  0  0  0  0
    5.6417   -4.7917    0.0000 C   0  0  0  0  0  0  0  0  0  0  0  0
    4.9292   -6.0292    0.0000 N   0  0  0  0  0  0  0  0  0  0  0  0
    6.3542   -4.3792    0.0000 O   0  0  0  0  0  0  0  0  0  0  0  0
    5.6417   -5.6167    0.0000 C   0  0  0  0  0  0  0  0  0  0  0  0
    4.2167   -4.7917    0.0000 C   0  0  0  0  0  0  0  0  0  0  0  0
    4.2167   -5.6167    0.0000 C   0  0  0  0  0  0  0  0  0  0  0  0
    7.0667   -4.7917    0.0000 C   0  0  0  0  0  0  0  0  0  0  0  0
    7.7875   -4.3792    0.0000 C   0  0  0  0  0  0  0  0  0  0  0  0
  2  1  2  0
  3  7  1  0
  4  2  1  0
  5  2  1  0
  6  1  1  0
  7  6  2  0
  8  4  1  0
  9  8  1  0
  3  5  2  0
M  END

> <chembl_id>
CHEMBL93554

> <chembl_pref_name>
None

$$$$

     RDKit          2D

  6  5  0  0  0  0  0  0  0  0999 V2000
    3.3384    0.2169    0.0000 N   0  0  0  0  0  0  0  0  0  0  0  0
    3.0835   -0.5678    0.0000 N   0  0  0  0  0  0  0  0  0  0  0  0
    2.0036    0.2169    0.0000 N   0  0  0  0  0  0  0  0  0  0  0  0
    2.6710    0.7018    0.0000 C   0  0  0  0  0  0  0  0  0  0  0  0
    2.2585   -0.5678    0.0000 C   0  0  0  0  0  0  0  0  0  0  0  0
    0.0000    0.0000    0.0000 Na  0  0  0  0  0 15  0  0  0  0  0  0
  1  2  1  0
  1  4  1  0
  2  5  2  0
  3  4  2  0
  3  5  1  0
M  CHG  2   1  -1   6   1
M  END

> <chembl_id>
CHEMBL1377189

> <chembl_pref_name>
None

$$$$

     RDKit          2D

  8  8  0  0  0  0  0  0  0  0999 V2000
   -3.0158  -19.0622    0.0000 C   0  0  0  0  0  0  0  0  0  0  0  0
   -3.4284  -19.7766    0.0000 C   0  0  0  0  0  0  0  0  0  0  0  0
   -4.2537  -19.7766    0.0000 C   0  0  0  0  0  0  0  0  0  0  0  0
   -4.6664  -19.0622    0.0000 C   0  0  0  0  0  0  0  0  0  0  0  0
   -4.2537  -18.3478    0.0000 C   0  0  0  0  0  0  0  0  0  0  0  0
   -3.4284  -18.3478    0.0000 C   0  0  0  0  0  0  0  0  0  0  0  0
   -5.4917  -19.0622    0.0000 Cl  0  0  0  0  0  0  0  0  0  0  0  0
   -2.1905  -19.0622    0.0000 Cl  0  0  0  0  0  0  0  0  0  0  0  0
  1  2  1  0
  2  3  2  0
  3  4  1  0
  4  5  2  0
  5  6  1  0
  1  6  2  0
  4  7  1  0
  1  8  1  0
M  END

> <chembl_id>
CHEMBL190982

> <chembl_pref_name>
1,4-DICHLOROBENZENE

$$$$

     RDKit          2D

 10 10  0  0  0  0  0  0  0  0999 V2000
    0.4818   -1.8306    0.0000 C   0  0  0  0  0  0  0  0  0  0  0  0
    0.4838   -0.8306    0.0000 C   0  0  0  0  0  0  0  0  0  0  0  0
    1.3510   -0.3322    0.0000 C   0  0  0  0  0  0  0  0  0  0  0  0
    1.3530    0.6676    0.0000 C   0  0  0  0  0  0  0  0  0  0  0  0
    0.4880    1.1694    0.0000 C   0  0  0  0  0  0  0  0  0  0  0  0
    0.4900    2.1694    0.0000 C   0  0  0  0  0  0  0  0  0  0  0  0
    1.3570    2.6676    0.0000 N   0  0  0  0  0  0  0  0  0  0  0  0
   -0.3792    0.6712    0.0000 C   0  0  0  0  0  0  0  0  0  0  0  0
   -1.2442    1.1728    0.0000 O   0  0  0  0  0  0  0  0  0  0  0  0
   -0.3812   -0.3288    0.0000 N   0  0  0  0  0  0  0  0  0  0  0  0
  1  2  1  0
  2  3  2  0
  3  4  1  0
  4  5  2  0
  5  6  1  0
  6  7  1  0
  5  8  1  0
  8  9  2  0
  8 10  1  0
 10  2  1  0
M  END

> <chembl_id>
CHEMBL4546606

> <chembl_pref_name>
None

$$$$

     RDKit          2D

 10 10  0  0  0  0  0  0  0  0999 V2000
    4.9989  -22.1095    0.0000 N   0  0  0  0  0  0  0  0  0  0  0  0
    4.9977  -22.9370    0.0000 C   0  0  0  0  0  0  0  0  0  0  0  0
    5.7126  -23.3498    0.0000 N   0  0  0  0  0  0  0  0  0  0  0  0
    6.4290  -22.9364    0.0000 C   0  0  0  0  0  0  0  0  0  0  0  0
    6.4262  -22.1058    0.0000 C   0  0  0  0  0  0  0  0  0  0  0  0
    5.7108  -21.6967    0.0000 C   0  0  0  0  0  0  0  0  0  0  0  0
    4.2829  -23.3489    0.0000 N   0  0  0  0  0  0  0  0  0  0  0  0
    3.5687  -22.9358    0.0000 C   0  0  0  0  0  0  0  0  0  0  0  0
    2.8539  -23.3478    0.0000 C   0  0  0  0  0  0  0  0  0  0  0  0
    2.1397  -22.9346    0.0000 O   0  0  0  0  0  0  0  0  0  0  0  0
  1  2  2  0
  2  3  1  0
  3  4  2  0
  4  5  1  0
  5  6  2  0
  6  1  1  0
  2  7  1  0
  7  8  1  0
  8  9  1  0
  9 10  1  0
M  END

> <chembl_id>
CHEMBL4075158

> <chembl_pref_name>
None

$$$$

     RDKit          2D

  7  7  0  0  0  0  0  0  0  0999 V2000
    2.5916    0.4083    0.0000 N   0  0  0  0  0  0  0  0  0  0  0  0
    3.4166    0.4083    0.0000 N   0  0  0  0  0  0  0  0  0  0  0  0
    3.6734    1.1924    0.0000 C   0  0  0  0  0  0  0  0  0  0  0  0
    3.0041    1.6792    0.0000 N   0  0  0  0  0  0  0  0  0  0  0  0
    2.3391    1.1924    0.0000 C   0  0  0  0  0  0  0  0  0  0  0  0
    4.4584    1.4463    0.0000 S   0  0  0  0  0  0  0  0  0  0  0  0
    1.5544    1.4470    0.0000 C   0  0  0  0  0  0  0  0  0  0  0  0
  2  3  2  0
  3  4  1  0
  4  5  1  0
  5  1  2  0
  1  2  1  0
  3  6  1  0
  5  7  1  0
M  END

> <chembl_id>
CHEMBL1935505

> <chembl_pref_name>
None

$$$$

     RDKit          2D

  9  9  0  0  0  0  0  0  0  0999 V2000
   -2.6662   -0.4438    0.0000 C   0  0  0  0  0  0  0  0  0  0  0  0
   -1.6712   -0.3432    0.0000 C   0  0  0  0  0  0  0  0  0  0  0  0
   -1.0050   -1.0890    0.0000 C   0  0  0  0  0  0  0  0  0  0  0  0
   -0.0898   -0.6858    0.0000 C   0  0  0  0  0  0  0  0  0  0  0  0
    0.7742   -1.1892    0.0000 C   0  0  0  0  0  0  0  0  0  0  0  0
    1.6422   -0.6928    0.0000 N   0  0  0  0  0  0  0  0  0  0  0  0
   -0.1906    0.3090    0.0000 C   0  0  0  0  0  0  0  0  0  0  0  0
    0.5552    0.9752    0.0000 C   0  0  0  0  0  0  0  0  0  0  0  0
   -1.1678    0.5208    0.0000 O   0  0  0  0  0  0  0  0  0  0  0  0
  1  2  1  0
  2  3  2  0
  3  4  1  0
  4  5  1  0
  5  6  1  0
  4  7  2  0
  7  8  1  0
  7  9  1  0
  9  2  1  0
M  END

> <chembl_id>
CHEMBL4554784

> <chembl_pref_name>
None

$$$$

     RDKit          2D

  7  7  0  0  0  0  0  0  0  0999 V2000
    0.7500   -1.0323    0.0000 N   0  0  0  0  0  0  0  0  0  0  0  0
    1.2135    0.3943    0.0000 N   0  0  0  0  0  0  0  0  0  0  0  0
    0.0000    1.2760    0.0000 C   0  0  0  0  0  0  0  0  0  0  0  0
   -1.2135    0.3943    0.0000 C   0  0  0  0  0  0  0  0  0  0  0  0
   -0.7500   -1.0323    0.0000 C   0  0  0  0  0  0  0  0  0  0  0  0
   -2.6394    0.8543    0.0000 C   0  0  0  0  0  0  0  0  0  0  0  0
   -3.5300    0.0501    0.0000 O   0  0  0  0  0  0  0  0  0  0  0  0
  1  2  1  0
  2  3  2  0
  3  4  1  0
  4  5  2  0
  1  5  1  0
  4  6  1  0
  6  7  1  0
M  END

> <chembl_id>
CHEMBL3276272

> <chembl_pref_name>
None

$$$$

     RDKit          2D

  9  9  0  0  0  0  0  0  0  0999 V2000
   -4.6182    0.8282    0.0000 C   0  0  0  0  0  0  0  0  0  0  0  0
   -4.6195    0.0020    0.0000 C   0  0  0  0  0  0  0  0  0  0  0  0
   -3.9077   -0.4101    0.0000 C   0  0  0  0  0  0  0  0  0  0  0  0
   -3.1897    0.0025    0.0000 C   0  0  0  0  0  0  0  0  0  0  0  0
   -3.1928    0.8321    0.0000 C   0  0  0  0  0  0  0  0  0  0  0  0
   -3.9097    1.2403    0.0000 C   0  0  0  0  0  0  0  0  0  0  0  0
   -3.9135    2.0639    0.0000 O   0  0  0  0  0  0  0  0  0  0  0  0
   -2.4760   -0.4086    0.0000 O   0  0  0  0  0  0  0  0  0  0  0  0
   -5.3333   -0.4087    0.0000 O   0  0  0  0  0  0  0  0  0  0  0  0
  4  5  1  0
  2  3  1  0
  5  6  2  0
  6  1  1  0
  1  2  2  0
  6  7  1  0
  3  4  2  0
  4  8  1  0
  2  9  1  0
M  END

> <chembl_id>
CHEMBL473159

> <chembl_pref_name>
PHLOROGLUCINOL

$$$$

     RDKit          2D

 10 10  0  0  0  0  0  0  0  0999 V2000
    1.0792   -4.3436    0.0000 C   0  0  0  0  0  0  0  0  0  0  0  0
    1.3341   -3.5589    0.0000 N   0  0  0  0  0  0  0  0  0  0  0  0
    0.6667   -3.0740    0.0000 C   0  0  0  0  0  0  0  0  0  0  0  0
    0.2542   -4.3436    0.0000 N   0  0  0  0  0  0  0  0  0  0  0  0
    0.6667   -2.2490    0.0000 C   0  0  0  0  0  0  0  0  0  0  0  0
   -0.0008   -3.5589    0.0000 C   0  0  0  0  0  0  0  0  0  0  0  0
    1.3811   -1.8365    0.0000 C   0  0  0  0  0  0  0  0  0  0  0  0
    1.5641   -5.0110    0.0000 N   0  0  0  0  0  0  0  0  0  0  0  0
    1.3811   -1.0115    0.0000 O   0  0  0  0  0  0  0  0  0  0  0  0
    2.0956   -2.2490    0.0000 O   0  0  0  0  0  0  0  0  0  0  0  0
  2  1  2  0
  3  2  1  0
  4  1  1  0
  5  3  1  0
  6  4  1  0
  7  5  1  0
  8  1  1  0
  9  7  1  0
 10  7  2  0
  6  3  2  0
M  END

> <chembl_id>
CHEMBL71461

> <chembl_pref_name>
None

$$$$

     RDKit          2D

  9 10  0  0  0  0  0  0  0  0999 V2000
    5.9542   -2.8792    0.0000 O   0  0  0  0  0  0  0  0  0  0  0  0
    5.1667   -2.6292    0.0000 C   0  0  0  0  0  0  0  0  0  0  0  0
    5.1667   -1.8042    0.0000 C   0  0  0  0  0  0  0  0  0  0  0  0
    6.4417   -2.2125    0.0000 C   0  0  0  0  0  0  0  0  0  0  0  0
    5.9500   -1.5417    0.0000 C   0  0  0  0  0  0  0  0  0  0  0  0
    4.4500   -3.0500    0.0000 C   0  0  0  0  0  0  0  0  0  0  0  0
    4.4500   -1.3917    0.0000 C   0  0  0  0  0  0  0  0  0  0  0  0
    3.7375   -2.6375    0.0000 C   0  0  0  0  0  0  0  0  0  0  0  0
    3.7375   -1.8125    0.0000 C   0  0  0  0  0  0  0  0  0  0  0  0
  2  1  1  0
  3  2  1  0
  4  1  1  0
  5  4  1  0
  6  2  2  0
  7  3  2  0
  8  6  1  0
  9  8  2  0
  3  5  1  0
  9  7  1  0
M  END

> <chembl_id>
CHEMBL370688

> <chembl_pref_name>
None

$$$$

     RDKit          2D

  7  7  0  0  0  0  0  0  0  0999 V2000
    0.1837    1.3082    0.0000 Cl  0  0  0  0  0  0  0  0  0  0  0  0
   -0.5307    0.0707    0.0000 N   0  0  0  0  0  0  0  0  0  0  0  0
    0.8982   -0.7543    0.0000 N   0  0  0  0  0  0  0  0  0  0  0  0
    0.1837    0.4832    0.0000 C   0  0  0  0  0  0  0  0  0  0  0  0
    0.8982    0.0707    0.0000 C   0  0  0  0  0  0  0  0  0  0  0  0
   -0.5307   -0.7543    0.0000 C   0  0  0  0  0  0  0  0  0  0  0  0
    0.1837   -1.1668    0.0000 C   0  0  0  0  0  0  0  0  0  0  0  0
  1  4  1  0
  2  4  1  0
  2  6  2  0
  3  5  1  0
  3  7  2  0
  4  5  2  0
  6  7  1  0
M  END

> <chembl_id>
CHEMBL1741693

> <chembl_pref_name>
None

$$$$

     RDKit          2D

 11 12  0  0  0  0  0  0  0  0999 V2000
   -4.0208    2.0375    0.0000 C   0  0  0  0  0  0  0  0  0  0  0  0
   -3.9333    2.6333    0.0000 N   0  0  0  0  0  0  0  0  0  0  0  0
   -3.4750    1.7750    0.0000 N   0  0  0  0  0  0  0  0  0  0  0  0
   -4.5375    1.7333    0.0000 C   0  0  0  0  0  0  0  0  0  0  0  0
   -5.5833    1.1333    0.0000 N   0  0  0  0  0  0  0  0  0  0  0  0
   -3.3375    2.7375    0.0000 C   0  0  0  0  0  0  0  0  0  0  0  0
   -3.0625    2.2083    0.0000 C   0  0  0  0  0  0  0  0  0  0  0  0
   -5.5833    1.7333    0.0000 C   0  0  0  0  0  0  0  0  0  0  0  0
   -5.0625    0.8333    0.0000 C   0  0  0  0  0  0  0  0  0  0  0  0
   -5.0625    2.0375    0.0000 C   0  0  0  0  0  0  0  0  0  0  0  0
   -4.5375    1.1250    0.0000 C   0  0  0  0  0  0  0  0  0  0  0  0
  2  1  2  0
  3  1  1  0
  4  1  1  0
  5  9  1  0
  6  2  1  0
  7  3  1  0
  8 10  1  0
  9 11  2  0
 10  4  2  0
 11  4  1  0
  7  6  1  0
  8  5  2  0
M  END

> <chembl_id>
CHEMBL14448

> <chembl_pref_name>
None

$$$$

     RDKit          2D

  9  9  0  0  0  0  0  0  0  0999 V2000
    3.0917   -1.3792    0.0000 C   0  0  0  0  0  0  0  0  0  0  0  0
    3.0917   -0.5542    0.0000 C   0  0  0  0  0  0  0  0  0  0  0  0
    4.5250   -1.3792    0.0000 C   0  0  0  0  0  0  0  0  0  0  0  0
    3.8042   -1.7917    0.0000 C   0  0  0  0  0  0  0  0  0  0  0  0
    3.8042   -0.1417    0.0000 N   0  0  0  0  0  0  0  0  0  0  0  0
    4.5250   -0.5542    0.0000 C   0  0  0  0  0  0  0  0  0  0  0  0
    3.8042   -2.6167    0.0000 O   0  0  0  0  0  0  0  0  0  0  0  0
    2.3792   -1.7917    0.0000 O   0  0  0  0  0  0  0  0  0  0  0  0
    3.8042    0.6833    0.0000 C   0  0  0  0  0  0  0  0  0  0  0  0
  2  1  2  0
  3  4  1  0
  4  1  1  0
  5  2  1  0
  6  3  2  0
  7  4  2  0
  8  1  1  0
  9  5  1  0
  6  5  1  0
M  END

> <chembl_id>
CHEMBL143317

> <chembl_pref_name>
None

$$$$

     RDKit          2D

  6  6  0  0  0  0  0  0  0  0999 V2000
    7.2542   -5.3667    0.0000 N   0  0  0  0  0  0  0  0  0  0  0  0
    7.5500   -6.1375    0.0000 C   0  0  0  0  0  0  0  0  0  0  0  0
    6.2167   -6.2042    0.0000 N   0  0  0  0  0  0  0  0  0  0  0  0
    6.9042   -6.6542    0.0000 S   0  0  0  0  0  0  0  0  0  0  0  0
    6.4292   -5.4042    0.0000 C   0  0  0  0  0  0  0  0  0  0  0  0
    8.3417   -6.3542    0.0000 N   0  0  0  0  0  0  0  0  0  0  0  0
  2  1  2  0
  3  5  2  0
  4  2  1  0
  5  1  1  0
  6  2  1  0
  3  4  1  0
M  END

> <chembl_id>
CHEMBL295053

> <chembl_pref_name>
None

$$$$

     RDKit          2D

 11 11  0  0  0  0  0  0  0  0999 V2000
   -0.0514    1.5292    0.0000 C   0  0  0  0  0  0  0  0  0  0  0  0
   -0.0526    0.7018    0.0000 C   0  0  0  0  0  0  0  0  0  0  0  0
    0.6622    0.2890    0.0000 C   0  0  0  0  0  0  0  0  0  0  0  0
    1.3787    0.7023    0.0000 C   0  0  0  0  0  0  0  0  0  0  0  0
    1.3758    1.5328    0.0000 C   0  0  0  0  0  0  0  0  0  0  0  0
    0.6604    1.9420    0.0000 C   0  0  0  0  0  0  0  0  0  0  0  0
    2.0887    1.9480    0.0000 C   0  0  0  0  0  0  0  0  0  0  0  0
    2.8047    1.5382    0.0000 C   0  0  0  0  0  0  0  0  0  0  0  0
    2.0856    2.7730    0.0000 C   0  0  0  0  0  0  0  0  0  0  0  0
    2.3052    1.1519    0.0000 C   0  0  0  0  0  0  0  0  0  0  0  0
    3.5177    1.9534    0.0000 C   0  0  0  0  0  0  0  0  0  0  0  0
  5  6  2  0
  6  1  1  0
  1  2  2  0
  5  7  1  0
  3  4  2  0
  7  8  1  0
  7  9  1  0
  4  5  1  0
  7 10  1  0
  2  3  1  0
  8 11  1  0
M  END

> <chembl_id>
CHEMBL1797417

> <chembl_pref_name>
tert-Amylbenzene

$$$$

     RDKit          2D

 10 10  0  0  0  0  0  0  0  0999 V2000
   -1.0579   -1.2062    0.0000 C   0  0  0  0  0  0  0  0  0  0  0  0
   -1.0590   -2.0321    0.0000 C   0  0  0  0  0  0  0  0  0  0  0  0
   -0.3455   -2.4442    0.0000 N   0  0  0  0  0  0  0  0  0  0  0  0
    0.3697   -2.0316    0.0000 C   0  0  0  0  0  0  0  0  0  0  0  0
    0.3669   -1.2026    0.0000 C   0  0  0  0  0  0  0  0  0  0  0  0
   -0.3473   -0.7941    0.0000 C   0  0  0  0  0  0  0  0  0  0  0  0
    1.0800   -0.7878    0.0000 C   0  0  0  0  0  0  0  0  0  0  0  0
    1.7949   -1.1969    0.0000 O   0  0  0  0  0  0  0  0  0  0  0  0
    1.0769    0.0357    0.0000 O   0  0  0  0  0  0  0  0  0  0  0  0
   -0.3498    0.0294    0.0000 F   0  0  0  0  0  0  0  0  0  0  0  0
  2  3  1  0
  5  6  2  0
  6  1  1  0
  1  2  2  0
  3  4  2  0
  7  8  1  0
  7  9  2  0
  5  7  1  0
  4  5  1  0
  6 10  1  0
M  END

> <chembl_id>
CHEMBL247324

> <chembl_pref_name>
None

$$$$

     RDKit          2D

 10 10  0  0  0  0  0  0  0  0999 V2000
    3.5375    0.0208    0.0000 C   0  0  0  0  0  0  0  0  0  0  0  0
    4.0625   -0.2917    0.0000 C   0  0  0  0  0  0  0  0  0  0  0  0
    3.0125    0.9250    0.0000 N   0  0  0  0  0  0  0  0  0  0  0  0
    2.4917    0.6250    0.0000 C   0  0  0  0  0  0  0  0  0  0  0  0
    3.5375    0.6208    0.0000 C   0  0  0  0  0  0  0  0  0  0  0  0
    4.0542   -0.9000    0.0000 O   0  0  0  0  0  0  0  0  0  0  0  0
    3.0125   -0.2792    0.0000 C   0  0  0  0  0  0  0  0  0  0  0  0
    2.4917    0.0208    0.0000 C   0  0  0  0  0  0  0  0  0  0  0  0
    4.5792    0.0083    0.0000 O   0  0  0  0  0  0  0  0  0  0  0  0
    1.9667    0.9333    0.0000 O   0  0  0  0  0  0  0  0  0  0  0  0
  2  1  1  0
  3  5  2  0
  4  8  2  0
  5  1  1  0
  6  2  2  0
  7  1  2  0
  8  7  1  0
  9  2  1  0
 10  4  1  0
  3  4  1  0
M  END

> <chembl_id>
CHEMBL95293

> <chembl_pref_name>
None

$$$$

     RDKit          2D

 10 11  0  0  0  0  0  0  0  0999 V2000
    5.0501   -0.8419    0.0000 N   0  0  0  0  0  0  0  0  0  0  0  0
    4.0197   -1.4569    0.0000 C   0  0  0  0  0  0  0  0  0  0  0  0
    3.2676   -2.7548    0.0000 C   0  0  0  0  0  0  0  0  0  0  0  0
    2.5987   -1.5004    0.0000 C   0  0  0  0  0  0  0  0  0  0  0  0
    1.2990   -0.7500    0.0000 C   0  0  0  0  0  0  0  0  0  0  0  0
    1.2990    0.7500    0.0000 C   0  0  0  0  0  0  0  0  0  0  0  0
    0.0000    1.5000    0.0000 C   0  0  0  0  0  0  0  0  0  0  0  0
   -1.2990    0.7500    0.0000 C   0  0  0  0  0  0  0  0  0  0  0  0
   -1.2990   -0.7500    0.0000 C   0  0  0  0  0  0  0  0  0  0  0  0
    0.0000   -1.5000    0.0000 C   0  0  0  0  0  0  0  0  0  0  0  0
  1  2  1  0
  2  3  1  0
  3  4  1  0
  4  2  1  0
  4  5  1  0
  5  6  2  0
  6  7  1  0
  7  8  2  0
  8  9  1  0
  9 10  2  0
 10  5  1  0
M  END

> <chembl_id>
CHEMBL313833

> <chembl_pref_name>
TRANYLCYPROMINE

$$$$

     RDKit          2D

 11 11  0  0  0  0  0  0  0  0999 V2000
    2.0318   -4.7788    0.0000 C   0  0  0  0  0  0  0  0  0  0  0  0
    2.0306   -5.6061    0.0000 C   0  0  0  0  0  0  0  0  0  0  0  0
    2.7454   -6.0190    0.0000 C   0  0  0  0  0  0  0  0  0  0  0  0
    3.4617   -5.6057    0.0000 C   0  0  0  0  0  0  0  0  0  0  0  0
    3.4589   -4.7752    0.0000 C   0  0  0  0  0  0  0  0  0  0  0  0
    2.7436   -4.3661    0.0000 C   0  0  0  0  0  0  0  0  0  0  0  0
    4.1718   -4.3600    0.0000 C   0  0  0  0  0  0  0  0  0  0  0  0
    4.8878   -4.7698    0.0000 C   0  0  0  0  0  0  0  0  0  0  0  0
    4.1687   -3.5350    0.0000 O   0  0  0  0  0  0  0  0  0  0  0  0
    5.6007   -4.3546    0.0000 C   0  0  0  0  0  0  0  0  0  0  0  0
    6.3121   -3.9393    0.0000 N   0  0  0  0  0  0  0  0  0  0  0  0
  1  2  2  0
  2  3  1  0
  3  4  2  0
  4  5  1  0
  5  6  2  0
  6  1  1  0
  5  7  1  0
  7  8  1  0
  7  9  2  0
  8 10  1  0
 10 11  3  0
M  ISO  1   7  14
M  END

> <chembl_id>
CHEMBL3251040

> <chembl_pref_name>
None

$$$$

     RDKit          2D

  7  7  0  0  0  0  0  0  0  0999 V2000
   25.9851   -5.9704    0.0000 C   0  0  0  0  0  0  0  0  0  0  0  0
   26.6342   -6.4669    0.0000 N   0  0  0  0  0  0  0  0  0  0  0  0
   27.3081   -6.0045    0.0000 C   0  0  0  0  0  0  0  0  0  0  0  0
   27.0744   -5.2188    0.0000 C   0  0  0  0  0  0  0  0  0  0  0  0
   26.2583   -5.2015    0.0000 C   0  0  0  0  0  0  0  0  0  0  0  0
   28.0784   -6.2771    0.0000 C   0  0  0  0  0  0  0  0  0  0  0  0
   28.2275   -7.0806    0.0000 O   0  0  0  0  0  0  0  0  0  0  0  0
  1  2  1  0
  2  3  1  0
  3  4  2  0
  4  5  1  0
  5  1  2  0
  3  6  1  0
  6  7  2  0
M  END

> <chembl_id>
CHEMBL2229658

> <chembl_pref_name>
None

$$$$

     RDKit          2D

 11 12  0  0  0  0  0  0  0  0999 V2000
   -1.3583    1.6583    0.0000 C   0  0  0  0  0  0  0  0  0  0  0  0
   -1.8708    1.3500    0.0000 C   0  0  0  0  0  0  0  0  0  0  0  0
   -1.2958    2.2500    0.0000 N   0  0  0  0  0  0  0  0  0  0  0  0
   -0.8083    1.4125    0.0000 N   0  0  0  0  0  0  0  0  0  0  0  0
   -2.3958    1.6500    0.0000 N   0  0  0  0  0  0  0  0  0  0  0  0
   -2.3958    0.4458    0.0000 N   0  0  0  0  0  0  0  0  0  0  0  0
   -1.8708    0.7458    0.0000 C   0  0  0  0  0  0  0  0  0  0  0  0
   -0.7083    2.3833    0.0000 C   0  0  0  0  0  0  0  0  0  0  0  0
   -0.4083    1.8583    0.0000 C   0  0  0  0  0  0  0  0  0  0  0  0
   -2.9083    1.3500    0.0000 C   0  0  0  0  0  0  0  0  0  0  0  0
   -2.9083    0.7458    0.0000 C   0  0  0  0  0  0  0  0  0  0  0  0
  2  1  1  0
  3  1  2  0
  4  1  1  0
  5  2  2  0
  6  7  2  0
  7  2  1  0
  8  3  1  0
  9  4  1  0
 10  5  1  0
 11  6  1  0
  9  8  1  0
 10 11  2  0
M  END

> <chembl_id>
CHEMBL14641

> <chembl_pref_name>
None

$$$$

     RDKit          2D

 10 10  0  0  0  0  0  0  0  0999 V2000
    1.4501   -2.2148    0.0000 N   0  0  0  0  0  0  0  0  0  0  0  0
    0.1152   -2.2148    0.0000 N   0  0  0  0  0  0  0  0  0  0  0  0
    1.1952   -2.9994    0.0000 N   0  0  0  0  0  0  0  0  0  0  0  0
    0.3702   -2.9994    0.0000 N   0  0  0  0  0  0  0  0  0  0  0  0
    0.0682    0.3326    0.0000 N   0  0  0  0  0  0  0  0  0  0  0  0
    0.7827   -1.7299    0.0000 C   0  0  0  0  0  0  0  0  0  0  0  0
    0.7827   -0.9049    0.0000 C   0  0  0  0  0  0  0  0  0  0  0  0
    0.0682   -0.4924    0.0000 C   0  0  0  0  0  0  0  0  0  0  0  0
   -0.6463    0.7451    0.0000 C   0  0  0  0  0  0  0  0  0  0  0  0
    0.7827    0.7451    0.0000 C   0  0  0  0  0  0  0  0  0  0  0  0
  1  3  2  0
  1  6  1  0
  2  4  1  0
  2  6  2  0
  3  4  1  0
  5  8  1  0
  5  9  1  0
  5 10  1  0
  6  7  1  0
  7  8  1  0
M  END

> <chembl_id>
CHEMBL1466382

> <chembl_pref_name>
None

$$$$

     RDKit          2D

 10 10  0  0  0  0  0  0  0  0999 V2000
   -1.3969    2.7991    0.0000 C   0  0  0  0  0  0  0  0  0  0  0  0
   -1.3980    1.9721    0.0000 C   0  0  0  0  0  0  0  0  0  0  0  0
   -0.6834    1.5593    0.0000 N   0  0  0  0  0  0  0  0  0  0  0  0
    0.0328    1.9725    0.0000 C   0  0  0  0  0  0  0  0  0  0  0  0
    0.0300    2.8028    0.0000 C   0  0  0  0  0  0  0  0  0  0  0  0
   -0.6852    3.2118    0.0000 C   0  0  0  0  0  0  0  0  0  0  0  0
    0.7489    1.5612    0.0000 C   0  0  0  0  0  0  0  0  0  0  0  0
    0.7501    0.7365    0.0000 O   0  0  0  0  0  0  0  0  0  0  0  0
    1.4624    1.9748    0.0000 O   0  0  0  0  0  0  0  0  0  0  0  0
   -2.1125    1.5602    0.0000 C   0  0  0  0  0  0  0  0  0  0  0  0
  2  3  1  0
  5  6  2  0
  6  1  1  0
  1  2  2  0
  3  4  2  0
  7  8  1  0
  7  9  2  0
  4  7  1  0
  4  5  1  0
  2 10  1  0
M  END

> <chembl_id>
CHEMBL1650458

> <chembl_pref_name>
None

$$$$

     RDKit          2D

 11 11  0  0  0  0  0  0  0  0999 V2000
    1.7458   -6.6572    0.0000 N   0  0  0  0  0  0  0  0  0  0  0  0
    2.4535   -6.2486    0.0000 C   0  0  0  0  0  0  0  0  0  0  0  0
    3.1612   -6.6572    0.0000 C   0  0  0  0  0  0  0  0  0  0  0  0
    3.8689   -6.2486    0.0000 C   0  0  0  0  0  0  0  0  0  0  0  0
    1.0381   -6.2486    0.0000 C   0  0  0  0  0  0  0  0  0  0  0  0
    1.0430   -5.4262    0.0000 C   0  0  0  0  0  0  0  0  0  0  0  0
    1.7568   -5.0217    0.0000 C   0  0  0  0  0  0  0  0  0  0  0  0
    1.7620   -4.2001    0.0000 C   0  0  0  0  0  0  0  0  0  0  0  0
    1.0518   -3.7838    0.0000 C   0  0  0  0  0  0  0  0  0  0  0  0
    0.3347   -4.1951    0.0000 C   0  0  0  0  0  0  0  0  0  0  0  0
    0.3329   -5.0154    0.0000 C   0  0  0  0  0  0  0  0  0  0  0  0
  1  2  1  0
  2  3  1  0
  3  4  2  0
  1  5  1  0
  5  6  1  0
  6  7  2  0
  7  8  1  0
  8  9  2  0
  9 10  1  0
 10 11  2  0
 11  6  1  0
M  END

> <chembl_id>
CHEMBL27066

> <chembl_pref_name>
None

$$$$

     RDKit          2D

  9  9  0  0  0  0  0  0  0  0999 V2000
    4.6405  -13.0206    0.0000 C   0  0  0  0  0  0  0  0  0  0  0  0
    4.6393  -13.8489    0.0000 N   0  0  0  0  0  0  0  0  0  0  0  0
    5.3547  -14.2621    0.0000 C   0  0  0  0  0  0  0  0  0  0  0  0
    6.0720  -13.8484    0.0000 N   0  0  0  0  0  0  0  0  0  0  0  0
    6.0691  -13.0170    0.0000 C   0  0  0  0  0  0  0  0  0  0  0  0
    5.3529  -12.6075    0.0000 C   0  0  0  0  0  0  0  0  0  0  0  0
    5.3545  -15.0878    0.0000 S   0  0  0  0  0  0  0  0  0  0  0  0
    6.7827  -12.6015    0.0000 O   0  0  0  0  0  0  0  0  0  0  0  0
    3.9252  -12.6080    0.0000 O   0  0  0  0  0  0  0  0  0  0  0  0
  4  5  1  0
  2  3  1  0
  5  6  2  0
  6  1  1  0
  1  2  2  0
  3  7  1  0
  3  4  2  0
  5  8  1  0
  1  9  1  0
M  END

> <chembl_id>
CHEMBL1650611

> <chembl_pref_name>
None

$$$$

     RDKit          2D

 11 12  0  0  0  0  0  0  0  0999 V2000
    0.0726   -0.2928    0.0000 C   0  0  0  0  0  0  0  0  0  0  0  0
   -0.6418   -0.7053    0.0000 C   0  0  0  0  0  0  0  0  0  0  0  0
   -1.3563   -0.2928    0.0000 C   0  0  0  0  0  0  0  0  0  0  0  0
   -1.3563    0.5322    0.0000 C   0  0  0  0  0  0  0  0  0  0  0  0
   -0.6418    0.9447    0.0000 C   0  0  0  0  0  0  0  0  0  0  0  0
    0.0726    0.5322    0.0000 C   0  0  0  0  0  0  0  0  0  0  0  0
    0.7871    0.9447    0.0000 C   0  0  0  0  0  0  0  0  0  0  0  0
    1.5016    0.5322    0.0000 C   0  0  0  0  0  0  0  0  0  0  0  0
    1.5016   -0.2928    0.0000 C   0  0  0  0  0  0  0  0  0  0  0  0
    0.7871   -0.7053    0.0000 C   0  0  0  0  0  0  0  0  0  0  0  0
   -0.6418   -1.5303    0.0000 O   0  0  0  0  0  0  0  0  0  0  0  0
  1  2  2  0
  1  6  1  0
  1 10  1  0
  2  3  1  0
  2 11  1  0
  3  4  2  0
  4  5  1  0
  5  6  2  0
  6  7  1  0
  7  8  1  0
  8  9  1  0
 10  9  1  0
M  END

> <chembl_id>
CHEMBL449132

> <chembl_pref_name>
None

$$$$

     RDKit          2D

 10 10  0  0  0  0  0  0  0  0999 V2000
    1.2990   -0.7500    0.0000 C   0  0  0  0  0  0  0  0  0  0  0  0
    1.2990    0.7500    0.0000 C   0  0  0  0  0  0  0  0  0  0  0  0
    0.0000    1.5000    0.0000 C   0  0  0  0  0  0  0  0  0  0  0  0
   -1.2990    0.7500    0.0000 C   0  0  0  0  0  0  0  0  0  0  0  0
   -1.2990   -0.7500    0.0000 C   0  0  0  0  0  0  0  0  0  0  0  0
    0.0000   -1.5000    0.0000 C   0  0  0  0  0  0  0  0  0  0  0  0
   -2.3383    1.3500    0.0000 N   0  0  0  0  0  0  0  0  0  0  0  0
    2.5972    1.5031    0.0000 C   0  0  0  0  0  0  0  0  0  0  0  0
    3.6375    0.9049    0.0000 C   0  0  0  0  0  0  0  0  0  0  0  0
    2.5955    2.7031    0.0000 O   0  0  0  0  0  0  0  0  0  0  0  0
  1  2  2  0
  3  2  1  0
  4  3  2  0
  5  4  1  0
  6  5  2  0
  1  6  1  0
  4  7  1  0
  2  8  1  0
  8  9  1  0
  8 10  2  0
M  END

> <chembl_id>
CHEMBL3408644

> <chembl_pref_name>
None

$$$$

     RDKit          2D

 10 10  0  0  0  0  0  0  0  0999 V2000
   -0.8875    1.0775    0.0000 O   0  0  0  0  0  0  0  0  0  0  0  0
    0.2395   -1.4295    0.0000 N   0  0  0  0  0  0  0  0  0  0  0  0
   -0.5855   -1.4295    0.0000 N   0  0  0  0  0  0  0  0  0  0  0  0
    0.5415    1.0775    0.0000 N   0  0  0  0  0  0  0  0  0  0  0  0
   -0.1730   -0.1600    0.0000 C   0  0  0  0  0  0  0  0  0  0  0  0
   -0.8404   -0.6449    0.0000 C   0  0  0  0  0  0  0  0  0  0  0  0
    0.4945   -0.6449    0.0000 C   0  0  0  0  0  0  0  0  0  0  0  0
   -0.1730    0.6650    0.0000 C   0  0  0  0  0  0  0  0  0  0  0  0
   -1.6250   -0.3900    0.0000 C   0  0  0  0  0  0  0  0  0  0  0  0
    0.7244   -2.0970    0.0000 C   0  0  0  0  0  0  0  0  0  0  0  0
  1  8  2  0
  2  3  1  0
  2  7  1  0
  2 10  1  0
  3  6  2  0
  4  8  1  0
  5  6  1  0
  5  7  2  0
  5  8  1  0
  6  9  1  0
M  END

> <chembl_id>
CHEMBL1537800

> <chembl_pref_name>
None

$$$$

     RDKit          2D

  9  9  0  0  0  0  0  0  0  0999 V2000
    3.9923   -3.1833    0.0000 C   0  0  0  0  0  0  0  0  0  0  0  0
    3.9912   -4.0086    0.0000 C   0  0  0  0  0  0  0  0  0  0  0  0
    4.7041   -4.4203    0.0000 N   0  0  0  0  0  0  0  0  0  0  0  0
    5.4187   -4.0081    0.0000 C   0  0  0  0  0  0  0  0  0  0  0  0
    5.4159   -3.1797    0.0000 C   0  0  0  0  0  0  0  0  0  0  0  0
    4.7024   -2.7717    0.0000 C   0  0  0  0  0  0  0  0  0  0  0  0
    6.1388   -4.4224    0.0000 O   0  0  0  0  0  0  0  0  0  0  0  0
    6.8526   -4.0088    0.0000 C   0  0  0  0  0  0  0  0  0  0  0  0
    7.5677   -4.4202    0.0000 C   0  0  0  0  0  0  0  0  0  0  0  0
  1  2  2  0
  2  3  1  0
  3  4  2  0
  4  5  1  0
  5  6  2  0
  6  1  1  0
  4  7  1  0
  7  8  1  0
  8  9  1  0
M  END

> <chembl_id>
CHEMBL3274301

> <chembl_pref_name>
None

$$$$

     RDKit          2D

 10 10  0  0  0  0  0  0  0  0999 V2000
    9.7625    1.1792    0.0000 C   0  0  0  0  0  0  0  0  0  0  0  0
   10.4770    1.5917    0.0000 C   0  0  0  0  0  0  0  0  0  0  0  0
   11.1914    1.1792    0.0000 C   0  0  0  0  0  0  0  0  0  0  0  0
   10.4770    2.4167    0.0000 N   0  0  0  0  0  0  0  0  0  0  0  0
   11.1951    0.3525    0.0000 O   0  0  0  0  0  0  0  0  0  0  0  0
   11.9096    1.5900    0.0000 O   0  0  0  0  0  0  0  0  0  0  0  0
    9.0976    1.6618    0.0000 N   0  0  0  0  0  0  0  0  0  0  0  0
    8.4287    1.1773    0.0000 C   0  0  0  0  0  0  0  0  0  0  0  0
    8.6829    0.3916    0.0000 N   0  0  0  0  0  0  0  0  0  0  0  0
    9.5102    0.3933    0.0000 C   0  0  0  0  0  0  0  0  0  0  0  0
  3  6  2  0
  7  8  2  0
  1  2  1  0
  2  4  1  0
  2  3  1  0
  1  7  1  0
  8  9  1  0
  9 10  1  0
 10  1  2  0
  3  5  1  0
M  END

> <chembl_id>
CHEMBL1089311

> <chembl_pref_name>
None

$$$$

     RDKit          2D

  8  8  0  0  0  0  0  0  0  0999 V2000
    8.2322   -4.8807    0.0000 N   0  0  0  0  0  0  0  0  0  0  0  0
    8.4838   -5.6651    0.0000 N   0  0  0  0  0  0  0  0  0  0  0  0
    7.8178   -6.1472    0.0000 C   0  0  0  0  0  0  0  0  0  0  0  0
    7.1520   -5.6651    0.0000 C   0  0  0  0  0  0  0  0  0  0  0  0
    7.4076   -4.8807    0.0000 C   0  0  0  0  0  0  0  0  0  0  0  0
    7.8178   -6.9755    0.0000 C   0  0  0  0  0  0  0  0  0  0  0  0
    7.1005   -7.3896    0.0000 C   0  0  0  0  0  0  0  0  0  0  0  0
    7.1005   -8.2179    0.0000 O   0  0  0  0  0  0  0  0  0  0  0  0
  1  2  1  0
  2  3  2  0
  3  4  1  0
  4  5  2  0
  1  5  1  0
  3  6  1  0
  6  7  1  0
  7  8  1  0
M  END

> <chembl_id>
CHEMBL3275947

> <chembl_pref_name>
None

$$$$

     RDKit          2D

  9  9  0  0  0  0  0  0  0  0999 V2000
    7.8875   -1.6667    0.0000 N   0  0  0  0  0  0  0  0  0  0  0  0
    7.1792   -1.2625    0.0000 C   0  0  0  0  0  0  0  0  0  0  0  0
    8.6000   -1.2625    0.0000 C   0  0  0  0  0  0  0  0  0  0  0  0
    7.1792   -0.4375    0.0000 C   0  0  0  0  0  0  0  0  0  0  0  0
    6.4625   -1.6750    0.0000 O   0  0  0  0  0  0  0  0  0  0  0  0
    8.6000   -0.4375    0.0000 C   0  0  0  0  0  0  0  0  0  0  0  0
    7.8875   -0.0167    0.0000 C   0  0  0  0  0  0  0  0  0  0  0  0
    7.8875   -2.4917    0.0000 C   0  0  0  0  0  0  0  0  0  0  0  0
    7.1750   -2.9042    0.0000 C   0  0  0  0  0  0  0  0  0  0  0  0
  2  1  1  0
  3  1  1  0
  4  2  1  0
  5  2  2  0
  6  3  2  0
  7  6  1  0
  8  1  1  0
  9  8  1  0
  4  7  2  0
M  END

> <chembl_id>
CHEMBL11769

> <chembl_pref_name>
None

$$$$

     RDKit          2D

 10 10  0  0  0  0  0  0  0  0999 V2000
    2.9652   -9.4332    0.0000 C   0  0  0  0  0  0  0  0  0  0  0  0
    2.9640  -10.2606    0.0000 C   0  0  0  0  0  0  0  0  0  0  0  0
    3.6789  -10.6735    0.0000 N   0  0  0  0  0  0  0  0  0  0  0  0
    4.3953  -10.2602    0.0000 C   0  0  0  0  0  0  0  0  0  0  0  0
    4.3924   -9.4296    0.0000 C   0  0  0  0  0  0  0  0  0  0  0  0
    3.6771   -9.0204    0.0000 C   0  0  0  0  0  0  0  0  0  0  0  0
    2.2493  -10.6726    0.0000 C   0  0  0  0  0  0  0  0  0  0  0  0
    5.1104  -10.6715    0.0000 C   0  0  0  0  0  0  0  0  0  0  0  0
    5.1118  -11.4964    0.0000 C   0  0  0  0  0  0  0  0  0  0  0  0
    5.1054   -9.0144    0.0000 O   0  0  0  0  0  0  0  0  0  0  0  0
  1  2  2  0
  2  3  1  0
  3  4  2  0
  4  5  1  0
  5  6  2  0
  6  1  1  0
  2  7  1  0
  4  8  1  0
  8  9  1  0
  5 10  1  0
M  END

> <chembl_id>
CHEMBL3338326

> <chembl_pref_name>
None

$$$$

     RDKit          2D

 11 12  0  0  0  0  0  0  0  0999 V2000
   -0.1122   -1.4922    0.0000 O   0  0  0  0  0  0  0  0  0  0  0  0
    0.1178   -2.9443    0.0000 O   0  0  0  0  0  0  0  0  0  0  0  0
    0.1178   -0.0402    0.0000 O   0  0  0  0  0  0  0  0  0  0  0  0
    1.1574   -1.9047    0.0000 C   0  0  0  0  0  0  0  0  0  0  0  0
    1.1574   -1.0797    0.0000 C   0  0  0  0  0  0  0  0  0  0  0  0
    0.3728   -2.1597    0.0000 C   0  0  0  0  0  0  0  0  0  0  0  0
    0.3728   -0.8248    0.0000 C   0  0  0  0  0  0  0  0  0  0  0  0
    1.8719   -2.3172    0.0000 C   0  0  0  0  0  0  0  0  0  0  0  0
    1.8719   -0.6672    0.0000 C   0  0  0  0  0  0  0  0  0  0  0  0
    2.5863   -1.9047    0.0000 C   0  0  0  0  0  0  0  0  0  0  0  0
    2.5863   -1.0797    0.0000 C   0  0  0  0  0  0  0  0  0  0  0  0
  1  6  1  0
  1  7  1  0
  2  6  2  0
  3  7  2  0
  4  5  2  0
  4  6  1  0
  4  8  1  0
  5  7  1  0
  5  9  1  0
  8 10  2  0
  9 11  2  0
 10 11  1  0
M  END

> <chembl_id>
CHEMBL1371297

> <chembl_pref_name>
PHTHALIC ANHYDRIDE

$$$$

     RDKit          2D

  8  8  0  0  0  0  0  0  0  0999 V2000
    2.4430    0.3956    0.0000 C   0  0  0  0  0  0  0  0  0  0  0  0
    1.4486    0.5012    0.0000 C   0  0  0  0  0  0  0  0  0  0  0  0
    0.9496    1.3678    0.0000 N   0  0  0  0  0  0  0  0  0  0  0  0
   -0.0286    1.1610    0.0000 O   0  0  0  0  0  0  0  0  0  0  0  0
   -0.1344    0.1666    0.0000 C   0  0  0  0  0  0  0  0  0  0  0  0
   -1.0010   -0.3324    0.0000 C   0  0  0  0  0  0  0  0  0  0  0  0
   -1.8662    0.1686    0.0000 N   0  0  0  0  0  0  0  0  0  0  0  0
    0.7788   -0.2412    0.0000 N   0  0  0  0  0  0  0  0  0  0  0  0
  1  2  1  0
  2  3  2  0
  3  4  1  0
  4  5  1  0
  5  6  1  0
  6  7  1  0
  5  8  2  0
  8  2  1  0
M  END

> <chembl_id>
CHEMBL4513656

> <chembl_pref_name>
None

$$$$

     RDKit          2D

  8  8  0  0  0  0  0  0  0  0999 V2000
    2.4430    0.3956    0.0000 N   0  0  0  0  0  0  0  0  0  0  0  0
    1.4486    0.5012    0.0000 C   0  0  0  0  0  0  0  0  0  0  0  0
    0.9496    1.3678    0.0000 N   0  0  0  0  0  0  0  0  0  0  0  0
   -0.0286    1.1610    0.0000 N   0  0  0  0  0  0  0  0  0  0  0  0
   -0.1344    0.1666    0.0000 C   0  0  0  0  0  0  0  0  0  0  0  0
   -1.0010   -0.3324    0.0000 C   0  0  0  0  0  0  0  0  0  0  0  0
   -1.8662    0.1686    0.0000 O   0  0  0  0  0  0  0  0  0  0  0  0
    0.7788   -0.2412    0.0000 S   0  0  0  0  0  0  0  0  0  0  0  0
  1  2  1  0
  2  3  2  0
  3  4  1  0
  4  5  2  0
  5  6  1  0
  6  7  1  0
  5  8  1  0
  8  2  1  0
M  END

> <chembl_id>
CHEMBL4584666

> <chembl_pref_name>
None

$$$$

     RDKit          2D

  8  8  0  0  0  0  0  0  0  0999 V2000
   -2.6396   -0.5864    0.0000 O   0  0  0  0  0  0  0  0  0  0  0  0
   -1.7730   -0.0874    0.0000 C   0  0  0  0  0  0  0  0  0  0  0  0
   -0.9076   -0.5882    0.0000 C   0  0  0  0  0  0  0  0  0  0  0  0
   -0.0412   -0.0892    0.0000 C   0  0  0  0  0  0  0  0  0  0  0  0
    0.8720   -0.4970    0.0000 C   0  0  0  0  0  0  0  0  0  0  0  0
    1.5418    0.2454    0.0000 C   0  0  0  0  0  0  0  0  0  0  0  0
    1.0430    1.1120    0.0000 O   0  0  0  0  0  0  0  0  0  0  0  0
    0.0646    0.9050    0.0000 C   0  0  0  0  0  0  0  0  0  0  0  0
  1  2  1  0
  2  3  1  0
  3  4  1  0
  4  5  1  0
  5  6  2  0
  6  7  1  0
  7  8  1  0
  8  4  2  0
M  END

> <chembl_id>
CHEMBL4565744

> <chembl_pref_name>
None

$$$$

     RDKit          2D

  9  9  0  0  0  0  0  0  0  0999 V2000
    1.1640    1.3132    0.0000 C   0  0  0  0  0  0  0  0  0  0  0  0
    0.9572    0.3350    0.0000 C   0  0  0  0  0  0  0  0  0  0  0  0
    1.6272   -0.4074    0.0000 N   0  0  0  0  0  0  0  0  0  0  0  0
    1.1282   -1.2740    0.0000 O   0  0  0  0  0  0  0  0  0  0  0  0
    0.1498   -1.0672    0.0000 C   0  0  0  0  0  0  0  0  0  0  0  0
    0.0442   -0.0728    0.0000 C   0  0  0  0  0  0  0  0  0  0  0  0
   -0.8224    0.4262    0.0000 C   0  0  0  0  0  0  0  0  0  0  0  0
   -1.6878   -0.0748    0.0000 C   0  0  0  0  0  0  0  0  0  0  0  0
   -0.8238    1.4262    0.0000 O   0  0  0  0  0  0  0  0  0  0  0  0
  1  2  1  0
  2  3  2  0
  3  4  1  0
  4  5  1  0
  5  6  2  0
  6  7  1  0
  7  8  1  0
  7  9  1  0
  6  2  1  0
M  END

> <chembl_id>
CHEMBL4566896

> <chembl_pref_name>
None

$$$$

     RDKit          2D

 10 10  0  0  0  0  0  0  0  0999 V2000
   -2.0576   -1.2684    0.0000 N   0  0  0  0  0  0  0  0  0  0  0  0
   -1.4688   -0.4600    0.0000 C   0  0  0  0  0  0  0  0  0  0  0  0
   -0.4744   -0.5656    0.0000 C   0  0  0  0  0  0  0  0  0  0  0  0
    0.1956    0.1768    0.0000 N   0  0  0  0  0  0  0  0  0  0  0  0
    1.1086   -0.2310    0.0000 C   0  0  0  0  0  0  0  0  0  0  0  0
    1.9752    0.2680    0.0000 C   0  0  0  0  0  0  0  0  0  0  0  0
    1.9764    1.2680    0.0000 F   0  0  0  0  0  0  0  0  0  0  0  0
    2.8406   -0.2330    0.0000 F   0  0  0  0  0  0  0  0  0  0  0  0
    1.0030   -1.2254    0.0000 N   0  0  0  0  0  0  0  0  0  0  0  0
    0.0246   -1.4322    0.0000 O   0  0  0  0  0  0  0  0  0  0  0  0
  1  2  1  0
  2  3  1  0
  3  4  2  0
  4  5  1  0
  5  6  1  0
  6  7  1  0
  6  8  1  0
  5  9  2  0
  9 10  1  0
 10  3  1  0
M  END

> <chembl_id>
CHEMBL4537263

> <chembl_pref_name>
None

$$$$

     RDKit          2D

 10 10  0  0  0  0  0  0  0  0999 V2000
   16.2574  -22.1358    0.0000 O   0  0  0  0  0  0  0  0  0  0  0  0
   17.0824  -22.1358    0.0000 C   0  0  0  0  0  0  0  0  0  0  0  0
   17.4949  -21.4213    0.0000 C   0  0  0  0  0  0  0  0  0  0  0  0
   18.3199  -21.4213    0.0000 C   0  0  0  0  0  0  0  0  0  0  0  0
   18.7324  -20.7069    0.0000 O   0  0  0  0  0  0  0  0  0  0  0  0
   18.7324  -22.1358    0.0000 C   0  0  0  0  0  0  0  0  0  0  0  0
   18.3199  -22.8503    0.0000 C   0  0  0  0  0  0  0  0  0  0  0  0
   17.4949  -22.8503    0.0000 C   0  0  0  0  0  0  0  0  0  0  0  0
   19.5574  -22.1358    0.0000 F   0  0  0  0  0  0  0  0  0  0  0  0
   17.0824  -20.7069    0.0000 F   0  0  0  0  0  0  0  0  0  0  0  0
  1  2  1  0
  2  3  1  0
  3  4  2  0
  4  5  1  0
  4  6  1  0
  6  7  2  0
  7  8  1  0
  2  8  2  0
  6  9  1  0
  3 10  1  0
M  END

> <chembl_id>
CHEMBL2332781

> <chembl_pref_name>
None

$$$$

     RDKit          2D

 10 10  0  0  0  0  0  0  0  0999 V2000
   -0.1240    1.4303    0.0000 O   0  0  0  0  0  0  0  0  0  0  0  0
    0.5435    0.1204    0.0000 N   0  0  0  0  0  0  0  0  0  0  0  0
   -0.5365   -0.6642    0.0000 N   0  0  0  0  0  0  0  0  0  0  0  0
   -0.7914    0.1204    0.0000 N   0  0  0  0  0  0  0  0  0  0  0  0
    0.2885   -0.6642    0.0000 C   0  0  0  0  0  0  0  0  0  0  0  0
   -0.1240    0.6053    0.0000 C   0  0  0  0  0  0  0  0  0  0  0  0
    0.7735   -1.3316    0.0000 C   0  0  0  0  0  0  0  0  0  0  0  0
    0.4379   -2.0853    0.0000 C   0  0  0  0  0  0  0  0  0  0  0  0
    0.9228   -2.7528    0.0000 C   0  0  0  0  0  0  0  0  0  0  0  0
   -0.3826   -2.1716    0.0000 C   0  0  0  0  0  0  0  0  0  0  0  0
  1  6  1  0
  2  5  1  0
  2  6  2  0
  3  4  1  0
  3  5  2  0
  4  6  1  0
  5  7  1  0
  7  8  1  0
  8  9  1  0
  8 10  1  0
M  END

> <chembl_id>
CHEMBL1351263

> <chembl_pref_name>
None

$$$$

     RDKit          2D

 10 10  0  0  0  0  0  0  0  0999 V2000
    3.5917   -2.3000    0.0000 C   0  0  0  0  0  0  0  0  0  0  0  0
    2.8792   -1.8875    0.0000 C   0  0  0  0  0  0  0  0  0  0  0  0
    4.3042   -2.7125    0.0000 C   0  0  0  0  0  0  0  0  0  0  0  0
    5.7375   -2.7125    0.0000 C   0  0  0  0  0  0  0  0  0  0  0  0
    5.0250   -2.3000    0.0000 O   0  0  0  0  0  0  0  0  0  0  0  0
    5.7375   -3.5375    0.0000 C   0  0  0  0  0  0  0  0  0  0  0  0
    6.4500   -2.2917    0.0000 C   0  0  0  0  0  0  0  0  0  0  0  0
    7.1667   -2.7042    0.0000 C   0  0  0  0  0  0  0  0  0  0  0  0
    6.4500   -3.9500    0.0000 C   0  0  0  0  0  0  0  0  0  0  0  0
    7.1667   -3.5375    0.0000 C   0  0  0  0  0  0  0  0  0  0  0  0
  2  1  3  0
  3  1  1  0
  4  5  1  0
  5  3  1  0
  6  4  2  0
  7  4  1  0
  8  7  2  0
  9  6  1  0
 10  8  1  0
 10  9  2  0
M  END

> <chembl_id>
CHEMBL28385

> <chembl_pref_name>
None

$$$$

     RDKit          2D

 10 10  0  0  0  0  0  0  0  0999 V2000
   -1.6810   -4.3077    0.0000 C   0  0  0  0  0  0  0  0  0  0  0  0
   -1.2660   -3.5927    0.0000 C   0  0  0  0  0  0  0  0  0  0  0  0
   -2.5064   -4.3077    0.0000 C   0  0  0  0  0  0  0  0  0  0  0  0
   -1.2660   -5.0228    0.0000 O   0  0  0  0  0  0  0  0  0  0  0  0
   -2.9143   -3.5924    0.0000 C   0  0  0  0  0  0  0  0  0  0  0  0
   -3.7390   -3.5921    0.0000 C   0  0  0  0  0  0  0  0  0  0  0  0
   -4.1525   -4.3074    0.0000 C   0  0  0  0  0  0  0  0  0  0  0  0
   -3.7353   -5.0245    0.0000 C   0  0  0  0  0  0  0  0  0  0  0  0
   -2.9122   -5.0214    0.0000 C   0  0  0  0  0  0  0  0  0  0  0  0
   -4.9733   -4.3085    0.0000 F   0  0  0  0  0  0  0  0  0  0  0  0
  1  2  1  0
  5  6  1  0
  1  3  1  0
  6  7  2  0
  1  4  2  0
  7  8  1  0
  8  9  2  0
  9  3  1  0
  3  5  2  0
  7 10  1  0
M  END

> <chembl_id>
CHEMBL257923

> <chembl_pref_name>
None

$$$$

     RDKit          2D

 10 10  0  0  0  0  0  0  0  0999 V2000
    0.7162    2.0708    0.0000 C   0  0  0  0  0  0  0  0  0  0  0  0
   -0.1508    1.5724    0.0000 O   0  0  0  0  0  0  0  0  0  0  0  0
   -0.1528    0.5724    0.0000 C   0  0  0  0  0  0  0  0  0  0  0  0
    0.7122    0.0708    0.0000 C   0  0  0  0  0  0  0  0  0  0  0  0
    0.7102   -0.9292    0.0000 C   0  0  0  0  0  0  0  0  0  0  0  0
   -0.1568   -1.4274    0.0000 C   0  0  0  0  0  0  0  0  0  0  0  0
   -1.0218   -0.9258    0.0000 N   0  0  0  0  0  0  0  0  0  0  0  0
   -1.0198    0.0742    0.0000 C   0  0  0  0  0  0  0  0  0  0  0  0
   -1.8848    0.5760    0.0000 C   0  0  0  0  0  0  0  0  0  0  0  0
   -2.7518    0.0776    0.0000 N   0  0  0  0  0  0  0  0  0  0  0  0
  1  2  1  0
  2  3  1  0
  3  4  2  0
  4  5  1  0
  5  6  2  0
  6  7  1  0
  7  8  2  0
  8  9  1  0
  9 10  1  0
  8  3  1  0
M  END

> <chembl_id>
CHEMBL4525471

> <chembl_pref_name>
None

$$$$

     RDKit          2D

 11 11  0  0  0  0  0  0  0  0999 V2000
    3.7130   -1.4423    0.0000 O   0  0  0  0  0  0  0  0  0  0  0  0
    2.8888   -1.4423    0.0000 C   0  0  0  0  0  0  0  0  0  0  0  0
    1.2404   -1.4423    0.0000 C   0  0  0  0  0  0  0  0  0  0  0  0
    2.4726   -0.7253    0.0000 C   0  0  0  0  0  0  0  0  0  0  0  0
    2.4726   -2.1552    0.0000 C   0  0  0  0  0  0  0  0  0  0  0  0
    1.6484   -0.7253    0.0000 C   0  0  0  0  0  0  0  0  0  0  0  0
    1.6484   -2.1552    0.0000 C   0  0  0  0  0  0  0  0  0  0  0  0
    0.4162   -1.4423    0.0000 C   0  0  0  0  0  0  0  0  0  0  0  0
    0.0000   -0.7253    0.0000 C   0  0  0  0  0  0  0  0  0  0  0  0
    4.1209   -2.1552    0.0000 C   0  0  0  0  0  0  0  0  0  0  0  0
    0.4162    0.0000    0.0000 C   0  0  0  0  0  0  0  0  0  0  0  0
  1  2  1  0
  1 10  1  0
  2  4  2  0
  2  5  1  0
  3  6  2  0
  3  7  1  0
  3  8  1  0
  4  6  1  0
  5  7  2  0
  8  9  2  3
  9 11  1  0
M  END

> <chembl_id>
CHEMBL3185908

> <chembl_pref_name>
None

$$$$

     RDKit          2D

 10 10  0  0  0  0  0  0  0  0999 V2000
   -2.7220   -0.6354    0.0000 C   0  0  0  0  0  0  0  0  0  0  0  0
   -1.8578   -0.1324    0.0000 C   0  0  0  0  0  0  0  0  0  0  0  0
   -1.8614    0.8676    0.0000 O   0  0  0  0  0  0  0  0  0  0  0  0
   -0.9900   -0.6292    0.0000 C   0  0  0  0  0  0  0  0  0  0  0  0
   -0.1258   -0.1262    0.0000 C   0  0  0  0  0  0  0  0  0  0  0  0
    0.7420   -0.6230    0.0000 C   0  0  0  0  0  0  0  0  0  0  0  0
    1.6064   -0.1200    0.0000 C   0  0  0  0  0  0  0  0  0  0  0  0
    1.6026    0.8800    0.0000 C   0  0  0  0  0  0  0  0  0  0  0  0
    0.7348    1.3768    0.0000 N   0  0  0  0  0  0  0  0  0  0  0  0
   -0.1294    0.8738    0.0000 C   0  0  0  0  0  0  0  0  0  0  0  0
  1  2  1  0
  2  3  1  0
  2  4  1  0
  4  5  1  0
  5  6  2  0
  6  7  1  0
  7  8  2  0
  8  9  1  0
  9 10  2  0
 10  5  1  0
M  END

> <chembl_id>
CHEMBL4544830

> <chembl_pref_name>
None

$$$$

     RDKit          2D

  8  8  0  0  0  0  0  0  0  0999 V2000
    8.2256   -7.9160    0.0000 C   0  0  0  0  0  0  0  0  0  0  0  0
    8.2256   -8.7332    0.0000 C   0  0  0  0  0  0  0  0  0  0  0  0
    8.9308   -9.1377    0.0000 C   0  0  0  0  0  0  0  0  0  0  0  0
    9.6361   -8.7332    0.0000 N   0  0  0  0  0  0  0  0  0  0  0  0
    9.6361   -7.9160    0.0000 C   0  0  0  0  0  0  0  0  0  0  0  0
    8.9308   -7.5033    0.0000 C   0  0  0  0  0  0  0  0  0  0  0  0
    8.9308   -9.9549    0.0000 O   0  0  0  0  0  0  0  0  0  0  0  0
    7.5185   -9.1428    0.0000 N   0  0  0  0  0  0  0  0  0  0  0  0
  1  2  2  0
  1  6  1  0
  2  3  1  0
  3  4  1  0
  4  5  1  0
  5  6  2  0
  3  7  2  0
  2  8  1  0
M  END

> <chembl_id>
CHEMBL4286709

> <chembl_pref_name>
None

$$$$

     RDKit          2D

 10 10  0  0  0  0  0  0  0  0999 V2000
   -1.1428    1.9182    0.0000 O   0  0  0  0  0  0  0  0  0  0  0  0
   -0.4284    1.5057    0.0000 C   0  0  0  0  0  0  0  0  0  0  0  0
    0.2861    1.9182    0.0000 O   0  0  0  0  0  0  0  0  0  0  0  0
   -0.4284    0.6807    0.0000 C   0  0  0  0  0  0  0  0  0  0  0  0
    0.2861    0.2682    0.0000 C   0  0  0  0  0  0  0  0  0  0  0  0
    0.2861   -0.5568    0.0000 C   0  0  0  0  0  0  0  0  0  0  0  0
    0.9535   -1.0417    0.0000 C   0  0  0  0  0  0  0  0  0  0  0  0
    0.6986   -1.8263    0.0000 N   0  0  0  0  0  0  0  0  0  0  0  0
   -0.1264   -1.8263    0.0000 C   0  0  0  0  0  0  0  0  0  0  0  0
   -0.3813   -1.0417    0.0000 N   0  0  0  0  0  0  0  0  0  0  0  0
  2  1  2  0
  2  3  1  0
  4  2  1  0
  4  5  2  0
  5  6  1  0
  7  6  2  0
  6 10  1  0
  7  8  1  0
  9  8  1  0
  9 10  2  0
M  END

> <chembl_id>
CHEMBL1236602

> <chembl_pref_name>
None

$$$$

     RDKit          2D

  9  9  0  0  0  0  0  0  0  0999 V2000
    1.4750   -0.8667    0.0000 C   0  0  0  0  0  0  0  0  0  0  0  0
    2.1917   -0.4542    0.0000 C   0  0  0  0  0  0  0  0  0  0  0  0
    0.7625   -0.4542    0.0000 C   0  0  0  0  0  0  0  0  0  0  0  0
    1.4750    0.7833    0.0000 C   0  0  0  0  0  0  0  0  0  0  0  0
    2.1917    0.3708    0.0000 C   0  0  0  0  0  0  0  0  0  0  0  0
    0.7625    0.3708    0.0000 C   0  0  0  0  0  0  0  0  0  0  0  0
    0.0500   -0.8667    0.0000 C   0  0  0  0  0  0  0  0  0  0  0  0
    2.9042   -0.8667    0.0000 C   0  0  0  0  0  0  0  0  0  0  0  0
   -0.6708   -0.4542    0.0000 C   0  0  0  0  0  0  0  0  0  0  0  0
  2  1  1  0
  3  1  2  0
  4  6  2  0
  5  2  2  0
  6  3  1  0
  7  3  1  0
  8  2  1  0
  9  7  1  0
  4  5  1  0
M  END

> <chembl_id>
CHEMBL31274

> <chembl_pref_name>
None

$$$$

     RDKit          2D

  8  8  0  0  0  0  0  0  0  0999 V2000
   12.1729   -9.6736    0.0000 C   0  0  0  0  0  0  0  0  0  0  0  0
   11.7643   -8.9645    0.0000 C   0  0  0  0  0  0  0  0  0  0  0  0
   10.9471   -8.9645    0.0000 C   0  0  0  0  0  0  0  0  0  0  0  0
   10.5385   -9.6736    0.0000 C   0  0  0  0  0  0  0  0  0  0  0  0
   10.9471  -10.3827    0.0000 C   0  0  0  0  0  0  0  0  0  0  0  0
   11.7643  -10.3827    0.0000 N   0  0  0  0  0  0  0  0  0  0  0  0
   12.1729  -11.0876    0.0000 O   0  0  0  0  0  0  0  0  0  0  0  0
   12.9901   -9.6736    0.0000 O   0  0  0  0  0  0  0  0  0  0  0  0
  1  2  1  0
  2  3  2  0
  3  4  1  0
  4  5  2  0
  5  6  1  0
  1  6  2  0
  6  7  1  0
  1  8  1  0
M  CHG  2   6   1   7  -1
M  END

> <chembl_id>
CHEMBL3898657

> <chembl_pref_name>
None

$$$$

     RDKit          2D

  9  9  0  0  0  0  0  0  0  0999 V2000
    0.6125  -25.6584    0.0000 N   0  0  0  0  0  0  0  0  0  0  0  0
    1.4375  -25.6584    0.0000 N   0  0  0  0  0  0  0  0  0  0  0  0
    1.6943  -24.8742    0.0000 N   0  0  0  0  0  0  0  0  0  0  0  0
    1.0250  -24.3875    0.0000 N   0  0  0  0  0  0  0  0  0  0  0  0
    0.3599  -24.8742    0.0000 C   0  0  0  0  0  0  0  0  0  0  0  0
   -0.4248  -24.6196    0.0000 C   0  0  0  0  0  0  0  0  0  0  0  0
   -1.2250  -24.4000    0.0000 F   0  0  0  0  0  0  0  0  0  0  0  0
   -0.1883  -23.8293    0.0000 F   0  0  0  0  0  0  0  0  0  0  0  0
   -0.6565  -25.4114    0.0000 F   0  0  0  0  0  0  0  0  0  0  0  0
  4  5  1  0
  5  1  2  0
  1  2  1  0
  5  6  1  0
  6  7  1  0
  2  3  2  0
  6  8  1  0
  3  4  1  0
  6  9  1  0
M  END

> <chembl_id>
CHEMBL503149

> <chembl_pref_name>
None

$$$$

     RDKit          2D

 11 11  0  0  0  0  0  0  0  0999 V2000
   11.2259    6.9536    0.0000 C   0  0  0  0  0  0  0  0  0  0  0  0
   10.5114    6.5411    0.0000 C   0  0  0  0  0  0  0  0  0  0  0  0
   10.5114    5.7161    0.0000 C   0  0  0  0  0  0  0  0  0  0  0  0
   11.2259    5.3036    0.0000 C   0  0  0  0  0  0  0  0  0  0  0  0
   11.9404    5.7161    0.0000 C   0  0  0  0  0  0  0  0  0  0  0  0
   11.9404    6.5411    0.0000 C   0  0  0  0  0  0  0  0  0  0  0  0
    9.7969    5.3036    0.0000 C   0  0  0  0  0  0  0  0  0  0  0  0
    9.0825    5.7161    0.0000 C   0  0  0  0  0  0  0  0  0  0  0  0
    8.3680    5.3036    0.0000 N   0  0  0  0  0  0  0  0  0  0  0  0
    7.6535    5.7161    0.0000 C   0  0  0  0  0  0  0  0  0  0  0  0
    6.9390    6.1286    0.0000 O   0  0  0  0  0  0  0  0  0  0  0  0
  1  2  1  0
  1  6  2  0
  2  3  2  0
  3  4  1  0
  4  5  2  0
  5  6  1  0
  3  7  1  0
  7  8  1  0
  8  9  1  0
  9 10  2  0
 10 11  2  0
M  END

> <chembl_id>
CHEMBL2074871

> <chembl_pref_name>
PHENETHYL ISOCYANATE

$$$$

     RDKit          2D

  9  9  0  0  0  0  0  0  0  0999 V2000
    9.4472   -3.5041    0.0000 C   0  0  0  0  0  0  0  0  0  0  0  0
   10.2644   -3.5041    0.0000 C   0  0  0  0  0  0  0  0  0  0  0  0
   10.5188   -2.7273    0.0000 C   0  0  0  0  0  0  0  0  0  0  0  0
    9.8558   -2.2452    0.0000 S   0  0  0  0  0  0  0  0  0  0  0  0
    9.1971   -2.7273    0.0000 C   0  0  0  0  0  0  0  0  0  0  0  0
   11.2219   -2.3112    0.0000 C   0  0  0  0  0  0  0  0  0  0  0  0
   11.9340   -2.7122    0.0000 O   0  0  0  0  0  0  0  0  0  0  0  0
   11.2132   -1.4941    0.0000 O   0  0  0  0  0  0  0  0  0  0  0  0
    8.4197   -2.4752    0.0000 F   0  0  0  0  0  0  0  0  0  0  0  0
  1  2  1  0
  2  3  2  0
  3  4  1  0
  4  5  1  0
  5  1  2  0
  3  6  1  0
  6  7  1  0
  6  8  2  0
  5  9  1  0
M  END

> <chembl_id>
CHEMBL4288339

> <chembl_pref_name>
None

$$$$

     RDKit          2D

  8  8  0  0  0  0  0  0  0  0999 V2000
    4.5167   -1.2542    0.0000 C   0  0  0  0  0  0  0  0  0  0  0  0
    4.5125   -0.4292    0.0000 S   0  0  0  0  0  0  0  0  0  0  0  0
    4.5167   -2.9125    0.0000 C   0  0  0  0  0  0  0  0  0  0  0  0
    4.5167   -3.7375    0.0000 F   0  0  0  0  0  0  0  0  0  0  0  0
    5.2292   -1.6667    0.0000 C   0  0  0  0  0  0  0  0  0  0  0  0
    3.8042   -1.6750    0.0000 C   0  0  0  0  0  0  0  0  0  0  0  0
    3.8042   -2.5000    0.0000 C   0  0  0  0  0  0  0  0  0  0  0  0
    5.2292   -2.5000    0.0000 C   0  0  0  0  0  0  0  0  0  0  0  0
  2  1  1  0
  3  7  1  0
  4  3  1  0
  5  1  2  0
  6  1  1  0
  7  6  2  0
  8  5  1  0
  3  8  2  0
M  END

> <chembl_id>
CHEMBL333626

> <chembl_pref_name>
None

$$$$

     RDKit          2D

 11 12  0  0  0  0  0  0  0  0999 V2000
    4.4875   -3.8417    0.0000 C   0  0  0  0  0  0  0  0  0  0  0  0
    5.9167   -4.6667    0.0000 N   0  0  0  0  0  0  0  0  0  0  0  0
    4.4792   -4.6667    0.0000 C   0  0  0  0  0  0  0  0  0  0  0  0
    5.2000   -3.4250    0.0000 C   0  0  0  0  0  0  0  0  0  0  0  0
    5.2000   -5.0792    0.0000 C   0  0  0  0  0  0  0  0  0  0  0  0
    5.9167   -3.8417    0.0000 C   0  0  0  0  0  0  0  0  0  0  0  0
    5.2000   -2.6000    0.0000 O   0  0  0  0  0  0  0  0  0  0  0  0
    3.7667   -3.4292    0.0000 C   0  0  0  0  0  0  0  0  0  0  0  0
    3.7667   -5.0792    0.0000 C   0  0  0  0  0  0  0  0  0  0  0  0
    3.0542   -3.8417    0.0000 C   0  0  0  0  0  0  0  0  0  0  0  0
    3.0542   -4.6667    0.0000 C   0  0  0  0  0  0  0  0  0  0  0  0
  2  6  1  0
  3  1  1  0
  4  1  1  0
  5  3  1  0
  6  4  1  0
  7  4  1  0
  8  1  2  0
  9  3  2  0
 10  8  1  0
 11 10  2  0
  5  2  1  0
  9 11  1  0
M  END

> <chembl_id>
CHEMBL296679

> <chembl_pref_name>
None

$$$$

     RDKit          2D

  7  7  0  0  0  0  0  0  0  0999 V2000
   -2.1804   17.6437    0.0000 N   0  0  0  0  0  0  0  0  0  0  0  0
   -2.8478   17.1588    0.0000 O   0  0  0  0  0  0  0  0  0  0  0  0
   -2.5929   16.3742    0.0000 C   0  0  0  0  0  0  0  0  0  0  0  0
   -1.7679   16.3742    0.0000 C   0  0  0  0  0  0  0  0  0  0  0  0
   -1.5129   17.1588    0.0000 N   0  0  0  0  0  0  0  0  0  0  0  0
   -1.2829   15.7068    0.0000 C   0  0  0  0  0  0  0  0  0  0  0  0
   -3.0778   15.7068    0.0000 O   0  0  0  0  0  0  0  0  0  0  0  0
  1  2  1  0
  2  3  1  0
  3  4  2  0
  4  5  1  0
  1  5  2  0
  4  6  1  0
  3  7  1  0
M  END

> <chembl_id>
CHEMBL1743348

> <chembl_pref_name>
SYDNONE

$$$$

     RDKit          2D

 10 10  0  0  0  0  0  0  0  0999 V2000
    3.9167    0.1208    0.0000 C   0  0  0  0  0  0  0  0  0  0  0  0
    3.2000    0.5333    0.0000 C   0  0  0  0  0  0  0  0  0  0  0  0
    3.2042    1.3583    0.0000 N   0  0  0  0  0  0  0  0  0  0  0  0
    3.9167   -0.7042    0.0000 O   0  0  0  0  0  0  0  0  0  0  0  0
    4.6292    0.5333    0.0000 N   0  0  0  0  0  0  0  0  0  0  0  0
    5.3417    0.1208    0.0000 N   0  0  0  0  0  0  0  0  0  0  0  0
    2.4917    1.7708    0.0000 C   0  0  0  0  0  0  0  0  0  0  0  0
    2.4917    0.1208    0.0000 C   0  0  0  0  0  0  0  0  0  0  0  0
    1.7750    1.3583    0.0000 C   0  0  0  0  0  0  0  0  0  0  0  0
    1.7792    0.5333    0.0000 C   0  0  0  0  0  0  0  0  0  0  0  0
  2  1  1  0
  3  2  2  0
  4  1  2  0
  5  1  1  0
  6  5  1  0
  7  3  1  0
  8  2  1  0
  9 10  1  0
 10  8  2  0
  7  9  2  0
M  END

> <chembl_id>
CHEMBL331508

> <chembl_pref_name>
None

$$$$

     RDKit          2D

  8  8  0  0  0  0  0  0  0  0999 V2000
    3.7750   -3.1917    0.0000 N   0  0  0  0  0  0  0  0  0  0  0  0
    4.3375   -3.4042    0.0000 C   0  0  0  0  0  0  0  0  0  0  0  0
    4.3042   -4.0042    0.0000 S   0  0  0  0  0  0  0  0  0  0  0  0
    3.4000   -3.6625    0.0000 C   0  0  0  0  0  0  0  0  0  0  0  0
    3.7292   -4.1625    0.0000 C   0  0  0  0  0  0  0  0  0  0  0  0
    4.8542   -3.1000    0.0000 C   0  0  0  0  0  0  0  0  0  0  0  0
    5.9500   -3.2417    0.0000 N   0  0  0  0  0  0  0  0  0  0  0  0
    5.3667   -3.4000    0.0000 C   0  0  0  0  0  0  0  0  0  0  0  0
  2  1  2  0
  3  2  1  0
  4  1  1  0
  5  4  2  0
  6  2  1  0
  7  8  1  0
  8  6  1  0
  3  5  1  0
M  END

> <chembl_id>
CHEMBL25414

> <chembl_pref_name>
None

$$$$

     RDKit          2D

 10 10  0  0  1  0  0  0  0  0999 V2000
    2.1420   -0.4075    0.0000 N   0  0  0  0  0  0  0  0  0  0  0  0
    1.4263    0.0000    0.0000 N   0  0  0  0  0  0  0  0  0  0  0  0
    1.4263   -1.6450    0.0000 C   0  0  0  0  0  0  0  0  0  0  0  0
    2.1420   -1.2325    0.0000 C   0  0  0  0  0  0  0  0  0  0  0  0
    0.7156   -1.2325    0.0000 C   0  0  0  0  0  0  0  0  0  0  0  0
    1.4263   -2.4700    0.0000 C   0  0  0  0  0  0  0  0  0  0  0  0
    0.0000   -1.6450    0.0000 C   0  0  0  0  0  0  0  0  0  0  0  0
    0.7156   -2.8775    0.0000 C   0  0  0  0  0  0  0  0  0  0  0  0
    0.0000   -2.4700    0.0000 C   0  0  0  0  0  0  0  0  0  0  0  0
    2.8576   -1.6450    0.0000 C   0  0  0  0  0  0  0  0  0  0  0  0
  1  2  1  0
  1  4  1  0
  3  4  1  0
  3  5  2  0
  3  6  1  0
  4 10  1  0
  5  7  1  0
  6  8  2  0
  7  9  2  0
  8  9  1  0
M  END

> <chembl_id>
CHEMBL1909283

> <chembl_pref_name>
MEBANAZINE

$$$$

     RDKit          2D

 11 11  0  0  0  0  0  0  0  0999 V2000
   10.3042   -1.5292    0.0000 C   0  0  0  0  0  0  0  0  0  0  0  0
   10.1542   -0.9417    0.0000 N   0  0  0  0  0  0  0  0  0  0  0  0
   11.3500   -1.5417    0.0000 C   0  0  0  0  0  0  0  0  0  0  0  0
   12.4000   -0.9542    0.0000 N   0  0  0  0  0  0  0  0  0  0  0  0
   11.3375   -2.7500    0.0000 N   0  0  0  0  0  0  0  0  0  0  0  0
   10.8292   -1.2375    0.0000 C   0  0  0  0  0  0  0  0  0  0  0  0
   11.8750   -1.2500    0.0000 C   0  0  0  0  0  0  0  0  0  0  0  0
   11.3417   -2.1500    0.0000 C   0  0  0  0  0  0  0  0  0  0  0  0
    9.7917   -1.8500    0.0000 N   0  0  0  0  0  0  0  0  0  0  0  0
    9.5667   -0.9042    0.0000 C   0  0  0  0  0  0  0  0  0  0  0  0
    9.3417   -1.4625    0.0000 C   0  0  0  0  0  0  0  0  0  0  0  0
  2  1  2  0
  3  6  2  0
  4  7  3  0
  5  8  3  0
  6  1  1  0
  7  3  1  0
  8  3  1  0
  9  1  1  0
 10  2  1  0
 11  9  1  0
 11 10  2  0
M  END

> <chembl_id>
CHEMBL293482

> <chembl_pref_name>
None

$$$$

     RDKit          2D

 11 12  0  0  0  0  0  0  0  0999 V2000
   -2.7269    1.0043    0.0000 C   0  0  0  0  0  0  0  0  0  0  0  0
   -2.0634    1.4953    0.0000 N   0  0  0  0  0  0  0  0  0  0  0  0
   -2.3235    2.2786    0.0000 C   0  0  0  0  0  0  0  0  0  0  0  0
   -3.1515    2.2717    0.0000 C   0  0  0  0  0  0  0  0  0  0  0  0
   -3.3966    1.4846    0.0000 N   0  0  0  0  0  0  0  0  0  0  0  0
   -2.7218    0.1815    0.0000 C   0  0  0  0  0  0  0  0  0  0  0  0
   -3.4351   -0.2359    0.0000 C   0  0  0  0  0  0  0  0  0  0  0  0
   -3.4293   -1.0605    0.0000 C   0  0  0  0  0  0  0  0  0  0  0  0
   -2.7109   -1.4687    0.0000 C   0  0  0  0  0  0  0  0  0  0  0  0
   -1.9969   -1.0462    0.0000 C   0  0  0  0  0  0  0  0  0  0  0  0
   -2.0062   -0.2230    0.0000 C   0  0  0  0  0  0  0  0  0  0  0  0
  1  2  2  0
  6  7  2  0
  2  3  1  0
  7  8  1  0
  3  4  1  0
  8  9  2  0
  4  5  1  0
  9 10  1  0
  5  1  1  0
 10 11  2  0
 11  6  1  0
  1  6  1  0
M  END

> <chembl_id>
CHEMBL274548

> <chembl_pref_name>
None

$$$$

     RDKit          2D

 10 10  0  0  0  0  0  0  0  0999 V2000
    6.0557   -2.0458    0.0000 O   0  0  0  0  0  0  0  0  0  0  0  0
    4.6292    1.2500    0.0000 N   0  0  0  0  0  0  0  0  0  0  0  0
    4.6292    0.4250    0.0000 N   0  0  0  0  0  0  0  0  0  0  0  0
    5.3412    0.0167    0.0000 C   0  0  0  0  0  0  0  0  0  0  0  0
    6.0532    0.4250    0.0000 C   0  0  0  0  0  0  0  0  0  0  0  0
    6.0532    1.2500    0.0000 C   0  0  0  0  0  0  0  0  0  0  0  0
    5.3412    1.6667    0.0000 C   0  0  0  0  0  0  0  0  0  0  0  0
    5.3412    2.4917    0.0000 O   0  0  0  0  0  0  0  0  0  0  0  0
    5.3412   -0.8083    0.0000 C   0  0  0  0  0  0  0  0  0  0  0  0
    6.0557   -1.2208    0.0000 C   0  0  0  0  0  0  0  0  0  0  0  0
  3  4  2  0
  4  5  1  0
  5  6  2  0
  6  7  1  0
  7  8  2  0
  2  3  1  0
  4  9  1  0
  2  7  1  0
  9 10  1  0
 10  1  1  0
M  END

> <chembl_id>
CHEMBL1269220

> <chembl_pref_name>
None

$$$$

     RDKit          2D

 11 12  0  0  0  0  0  0  0  0999 V2000
    3.5792   -3.0375    0.0000 C   0  0  0  0  0  0  0  0  0  0  0  0
    3.5792   -2.2125    0.0000 C   0  0  0  0  0  0  0  0  0  0  0  0
    4.2917   -3.4500    0.0000 N   0  0  0  0  0  0  0  0  0  0  0  0
    4.3042   -1.8042    0.0000 C   0  0  0  0  0  0  0  0  0  0  0  0
    2.8667   -3.4417    0.0000 N   0  0  0  0  0  0  0  0  0  0  0  0
    5.0125   -3.0292    0.0000 C   0  0  0  0  0  0  0  0  0  0  0  0
    2.8750   -1.7917    0.0000 C   0  0  0  0  0  0  0  0  0  0  0  0
    5.0125   -2.2125    0.0000 C   0  0  0  0  0  0  0  0  0  0  0  0
    4.3167   -0.9792    0.0000 C   0  0  0  0  0  0  0  0  0  0  0  0
    2.8875   -0.9667    0.0000 C   0  0  0  0  0  0  0  0  0  0  0  0
    3.6042   -0.5625    0.0000 C   0  0  0  0  0  0  0  0  0  0  0  0
  2  1  2  0
  3  1  1  0
  4  2  1  0
  5  1  1  0
  6  3  2  0
  7  2  1  0
  8  6  1  0
  9  4  1  0
 10  7  1  0
 11 10  1  0
  4  8  2  0
  9 11  1  0
M  END

> <chembl_id>
CHEMBL59350

> <chembl_pref_name>
None

$$$$

     RDKit          2D

  8  8  0  0  0  0  0  0  0  0999 V2000
   -4.0199  -22.3784    0.0000 C   0  0  0  0  0  0  0  0  0  0  0  0
   -4.0210  -23.2054    0.0000 C   0  0  0  0  0  0  0  0  0  0  0  0
   -3.3067  -23.6180    0.0000 C   0  0  0  0  0  0  0  0  0  0  0  0
   -2.5907  -23.2049    0.0000 N   0  0  0  0  0  0  0  0  0  0  0  0
   -2.5935  -22.3748    0.0000 C   0  0  0  0  0  0  0  0  0  0  0  0
   -3.3085  -21.9660    0.0000 C   0  0  0  0  0  0  0  0  0  0  0  0
   -3.3110  -21.1415    0.0000 C   0  0  0  0  0  0  0  0  0  0  0  0
   -3.3188  -20.3131    0.0000 C   0  0  0  0  0  0  0  0  0  0  0  0
  4  5  1  0
  2  3  1  0
  5  6  2  0
  6  1  1  0
  1  2  2  0
  6  7  1  0
  3  4  2  0
  7  8  3  0
M  END

> <chembl_id>
CHEMBL394630

> <chembl_pref_name>
None

$$$$

     RDKit          2D

 10 10  0  0  0  0  0  0  0  0999 V2000
    5.3125   -2.4250    0.0000 N   0  0  0  0  0  0  0  0  0  0  0  0
    5.3125   -3.0250    0.0000 N   0  0  0  0  0  0  0  0  0  0  0  0
    4.8000   -3.3250    0.0000 C   0  0  0  0  0  0  0  0  0  0  0  0
    5.8292   -2.1167    0.0000 O   0  0  0  0  0  0  0  0  0  0  0  0
    3.7625   -3.3250    0.0000 N   0  0  0  0  0  0  0  0  0  0  0  0
    4.2792   -3.0250    0.0000 C   0  0  0  0  0  0  0  0  0  0  0  0
    5.8292   -3.3250    0.0000 C   0  0  0  0  0  0  0  0  0  0  0  0
    4.8000   -3.9167    0.0000 C   0  0  0  0  0  0  0  0  0  0  0  0
    3.7667   -3.9167    0.0000 C   0  0  0  0  0  0  0  0  0  0  0  0
    4.2875   -4.2167    0.0000 C   0  0  0  0  0  0  0  0  0  0  0  0
  2  1  1  0
  3  2  1  0
  4  1  2  0
  5  6  1  0
  6  3  2  0
  7  2  1  0
  8  3  1  0
  9 10  1  0
 10  8  2  0
  5  9  2  0
M  END

> <chembl_id>
CHEMBL165710

> <chembl_pref_name>
None

$$$$

     RDKit          2D

 10 10  0  0  0  0  0  0  0  0999 V2000
    8.9464   -2.0140    0.0000 C   0  0  0  0  0  0  0  0  0  0  0  0
    8.9453   -2.8336    0.0000 C   0  0  0  0  0  0  0  0  0  0  0  0
    9.6533   -3.2426    0.0000 C   0  0  0  0  0  0  0  0  0  0  0  0
   10.3630   -2.8331    0.0000 C   0  0  0  0  0  0  0  0  0  0  0  0
   10.3601   -2.0105    0.0000 C   0  0  0  0  0  0  0  0  0  0  0  0
    9.6515   -1.6052    0.0000 C   0  0  0  0  0  0  0  0  0  0  0  0
   11.0663   -1.5992    0.0000 C   0  0  0  0  0  0  0  0  0  0  0  0
   11.7756   -2.0051    0.0000 C   0  0  0  0  0  0  0  0  0  0  0  0
   11.7786   -2.8223    0.0000 C   0  0  0  0  0  0  0  0  0  0  0  0
   12.4879   -3.2282    0.0000 O   0  0  0  0  0  0  0  0  0  0  0  0
  1  2  2  0
  2  3  1  0
  3  4  2  0
  4  5  1  0
  5  6  2  0
  6  1  1  0
  5  7  1  0
  7  8  2  0
  8  9  1  0
  9 10  2  0
M  END

> <chembl_id>
CHEMBL2289233

> <chembl_pref_name>
CINNAMIC ALDEHYDE

$$$$

     RDKit          2D

 11 11  0  0  0  0  0  0  0  0999 V2000
    8.2417   -4.4667    0.0000 N   0  0  0  0  0  0  0  0  0  0  0  0
    7.7250   -4.7750    0.0000 C   0  0  0  0  0  0  0  0  0  0  0  0
    7.2042   -5.0750    0.0000 C   0  0  0  0  0  0  0  0  0  0  0  0
    6.6875   -4.7792    0.0000 C   0  0  0  0  0  0  0  0  0  0  0  0
    6.1667   -5.0792    0.0000 C   0  0  0  0  0  0  0  0  0  0  0  0
    5.1292   -5.6875    0.0000 C   0  0  0  0  0  0  0  0  0  0  0  0
    5.6500   -4.7792    0.0000 C   0  0  0  0  0  0  0  0  0  0  0  0
    6.1667   -5.6875    0.0000 C   0  0  0  0  0  0  0  0  0  0  0  0
    5.6500   -5.9875    0.0000 C   0  0  0  0  0  0  0  0  0  0  0  0
    5.1292   -5.0875    0.0000 C   0  0  0  0  0  0  0  0  0  0  0  0
    4.6125   -5.9875    0.0000 O   0  0  0  0  0  0  0  0  0  0  0  0
  2  1  3  0
  3  2  1  0
  4  3  2  0
  5  4  1  0
  6  9  1  0
  7  5  2  0
  8  5  1  0
  9  8  2  0
 10  7  1  0
 11  6  1  0
 10  6  2  0
M  END

> <chembl_id>
CHEMBL75718

> <chembl_pref_name>
None

$$$$

     RDKit          2D

 10 10  0  0  0  0  0  0  0  0999 V2000
    6.6605   -1.8456    0.0000 C   0  0  0  0  0  0  0  0  0  0  0  0
    6.6594   -2.6730    0.0000 C   0  0  0  0  0  0  0  0  0  0  0  0
    7.3741   -3.0858    0.0000 C   0  0  0  0  0  0  0  0  0  0  0  0
    8.0906   -2.6725    0.0000 C   0  0  0  0  0  0  0  0  0  0  0  0
    8.0877   -1.8420    0.0000 C   0  0  0  0  0  0  0  0  0  0  0  0
    7.3723   -1.4330    0.0000 C   0  0  0  0  0  0  0  0  0  0  0  0
    8.8005   -1.4269    0.0000 C   0  0  0  0  0  0  0  0  0  0  0  0
    9.5166   -1.8366    0.0000 C   0  0  0  0  0  0  0  0  0  0  0  0
   10.2294   -1.4214    0.0000 N   0  0  0  0  0  0  0  0  0  0  0  0
   10.9454   -1.8313    0.0000 N   0  0  0  0  0  0  0  0  0  0  0  0
  1  2  2  0
  2  3  1  0
  3  4  2  0
  4  5  1  0
  5  6  2  0
  6  1  1  0
  5  7  1  0
  7  8  1  0
  8  9  2  0
  9 10  1  0
M  END

> <chembl_id>
CHEMBL2235132

> <chembl_pref_name>
BETA-PHENYLETHYLIDENE HYDRAZINE

$$$$

     RDKit          2D

 11 12  0  0  0  0  0  0  0  0999 V2000
   -1.2964    1.4973    0.0000 C   0  0  0  0  0  0  0  0  0  0  0  0
   -2.6111    0.7486    0.0000 N   0  0  0  0  0  0  0  0  0  0  0  0
   -2.6111   -0.7486    0.0000 C   0  0  0  0  0  0  0  0  0  0  0  0
   -1.2964   -1.4973    0.0000 C   0  0  0  0  0  0  0  0  0  0  0  0
    0.0000   -0.7486    0.0000 C   0  0  0  0  0  0  0  0  0  0  0  0
    1.2964   -1.4973    0.0000 C   0  0  0  0  0  0  0  0  0  0  0  0
    2.5929   -0.7486    0.0000 C   0  0  0  0  0  0  0  0  0  0  0  0
    2.5929    0.7486    0.0000 C   0  0  0  0  0  0  0  0  0  0  0  0
    1.2964    1.4973    0.0000 C   0  0  0  0  0  0  0  0  0  0  0  0
    0.0000    0.7486    0.0000 C   0  0  0  0  0  0  0  0  0  0  0  0
    1.2964    2.6973    0.0000 O   0  0  0  0  0  0  0  0  0  0  0  0
  1  2  2  0
  2  3  1  0
  3  4  2  0
  4  5  1  0
  5  6  1  0
  6  7  1  0
  7  8  1  0
  8  9  1  0
  9 10  1  0
  1 10  1  0
  5 10  2  0
  9 11  2  0
M  END

> <chembl_id>
CHEMBL3585998

> <chembl_pref_name>
None

$$$$

     RDKit          2D

 10 10  0  0  0  0  0  0  0  0999 V2000
   16.8390    2.6123    0.0000 C   0  0  0  0  0  0  0  0  0  0  0  0
   16.8379    1.7851    0.0000 C   0  0  0  0  0  0  0  0  0  0  0  0
   17.5527    1.3722    0.0000 N   0  0  0  0  0  0  0  0  0  0  0  0
   18.2690    1.7855    0.0000 C   0  0  0  0  0  0  0  0  0  0  0  0
   18.2662    2.6160    0.0000 N   0  0  0  0  0  0  0  0  0  0  0  0
   17.5509    3.0251    0.0000 C   0  0  0  0  0  0  0  0  0  0  0  0
   18.9842    1.3742    0.0000 N   0  0  0  0  0  0  0  0  0  0  0  0
   18.9854    0.5493    0.0000 C   0  0  0  0  0  0  0  0  0  0  0  0
   19.7005    0.1379    0.0000 C   0  0  0  0  0  0  0  0  0  0  0  0
   19.7018   -0.6871    0.0000 C   0  0  0  0  0  0  0  0  0  0  0  0
  2  3  1  0
  5  6  2  0
  6  1  1  0
  1  2  2  0
  4  7  1  0
  3  4  2  0
  7  8  1  0
  8  9  1  0
  4  5  1  0
  9 10  1  0
M  END

> <chembl_id>
CHEMBL1649895

> <chembl_pref_name>
None

$$$$

     RDKit          2D

 10 10  0  0  0  0  0  0  0  0999 V2000
    4.0588   -3.3147    0.0000 C   0  0  0  0  0  0  0  0  0  0  0  0
    3.8149   -4.1029    0.0000 N   0  0  0  0  0  0  0  0  0  0  0  0
    4.4881   -4.5800    0.0000 O   0  0  0  0  0  0  0  0  0  0  0  0
    5.1510   -4.0845    0.0000 C   0  0  0  0  0  0  0  0  0  0  0  0
    4.8826   -3.3053    0.0000 C   0  0  0  0  0  0  0  0  0  0  0  0
    3.5654   -2.6535    0.0000 N   0  0  0  0  0  0  0  0  0  0  0  0
    2.7402   -2.6261    0.0000 C   0  0  0  0  0  0  0  0  0  0  0  0
    2.3520   -1.8981    0.0000 C   0  0  0  0  0  0  0  0  0  0  0  0
    2.3039   -3.3263    0.0000 C   0  0  0  0  0  0  0  0  0  0  0  0
    5.9396   -4.3272    0.0000 C   0  0  0  0  0  0  0  0  0  0  0  0
  1  2  2  0
  2  3  1  0
  3  4  1  0
  4  5  2  0
  5  1  1  0
  1  6  1  0
  6  7  1  0
  7  8  1  0
  7  9  1  0
  4 10  1  0
M  END

> <chembl_id>
CHEMBL2436830

> <chembl_pref_name>
None

$$$$

     RDKit          2D

  7  7  0  0  0  0  0  0  0  0999 V2000
   -0.0000    1.4143    0.0000 C   0  0  0  0  0  0  0  0  0  0  0  0
   -0.0000    0.5893    0.0000 C   0  0  0  0  0  0  0  0  0  0  0  0
    0.7145    0.1768    0.0000 C   0  0  0  0  0  0  0  0  0  0  0  0
    0.7145   -0.6482    0.0000 C   0  0  0  0  0  0  0  0  0  0  0  0
    0.0000   -1.0607    0.0000 C   0  0  0  0  0  0  0  0  0  0  0  0
   -0.7145   -0.6482    0.0000 C   0  0  0  0  0  0  0  0  0  0  0  0
   -0.7145    0.1768    0.0000 C   0  0  0  0  0  0  0  0  0  0  0  0
  1  2  1  0
  2  3  2  0
  2  7  1  0
  3  4  1  0
  4  5  2  0
  5  6  1  0
  6  7  2  0
M  END

> <chembl_id>
CHEMBL9113

> <chembl_pref_name>
TOLUENE

$$$$

     RDKit          2D

 11 12  0  0  0  0  0  0  0  0999 V2000
    0.6589   -2.4639    0.0000 C   0  0  0  0  0  0  0  0  0  0  0  0
    0.6578   -3.2835    0.0000 C   0  0  0  0  0  0  0  0  0  0  0  0
    1.3658   -3.6924    0.0000 C   0  0  0  0  0  0  0  0  0  0  0  0
    2.0755   -3.2830    0.0000 C   0  0  0  0  0  0  0  0  0  0  0  0
    2.0727   -2.4603    0.0000 C   0  0  0  0  0  0  0  0  0  0  0  0
    1.3641   -2.0551    0.0000 C   0  0  0  0  0  0  0  0  0  0  0  0
    2.7808   -2.0526    0.0000 C   0  0  0  0  0  0  0  0  0  0  0  0
    3.5285   -2.3821    0.0000 O   0  0  0  0  0  0  0  0  0  0  0  0
    4.0731   -1.7727    0.0000 C   0  0  0  0  0  0  0  0  0  0  0  0
    3.6618   -1.0665    0.0000 C   0  0  0  0  0  0  0  0  0  0  0  0
    2.8631   -1.2396    0.0000 N   0  0  0  0  0  0  0  0  0  0  0  0
  1  2  2  0
  2  3  1  0
  3  4  2  0
  4  5  1  0
  5  6  2  0
  6  1  1  0
  7  8  1  0
  8  9  1  0
  9 10  1  0
 10 11  1  0
 11  7  2  0
  5  7  1  0
M  END

> <chembl_id>
CHEMBL3323438

> <chembl_pref_name>
None

$$$$

     RDKit          2D

 11 11  0  0  0  0  0  0  0  0999 V2000
   26.8930  -17.7801    0.0000 C   0  0  0  0  0  0  0  0  0  0  0  0
   27.7102  -17.7801    0.0000 C   0  0  0  0  0  0  0  0  0  0  0  0
   28.5274  -17.7801    0.0000 C   0  0  0  0  0  0  0  0  0  0  0  0
   28.9360  -18.4878    0.0000 O   0  0  0  0  0  0  0  0  0  0  0  0
   28.9360  -17.0724    0.0000 O   0  0  0  0  0  0  0  0  0  0  0  0
   26.0758  -17.7760    0.0000 C   0  0  0  0  0  0  0  0  0  0  0  0
   25.6727  -17.0639    0.0000 C   0  0  0  0  0  0  0  0  0  0  0  0
   24.8562  -17.0594    0.0000 C   0  0  0  0  0  0  0  0  0  0  0  0
   24.4432  -17.7656    0.0000 C   0  0  0  0  0  0  0  0  0  0  0  0
   24.8527  -18.4778    0.0000 C   0  0  0  0  0  0  0  0  0  0  0  0
   25.6677  -18.4787    0.0000 C   0  0  0  0  0  0  0  0  0  0  0  0
  1  2  3  0
  2  3  1  0
  3  4  1  0
  3  5  2  0
  1  6  1  0
  6  7  2  0
  7  8  1  0
  8  9  2  0
  9 10  1  0
 10 11  2  0
 11  6  1  0
M  END

> <chembl_id>
CHEMBL4059878

> <chembl_pref_name>
None

$$$$

     RDKit          2D

  9  9  0  0  0  0  0  0  0  0999 V2000
    6.7792   -5.8000    0.0000 N   0  0  0  0  0  0  0  0  0  0  0  0
    6.0667   -5.3875    0.0000 C   0  0  0  0  0  0  0  0  0  0  0  0
    5.3542   -4.9750    0.0000 C   0  0  0  0  0  0  0  0  0  0  0  0
    5.3542   -4.1417    0.0000 C   0  0  0  0  0  0  0  0  0  0  0  0
    4.6375   -3.7292    0.0000 C   0  0  0  0  0  0  0  0  0  0  0  0
    4.6292   -2.9042    0.0000 O   0  0  0  0  0  0  0  0  0  0  0  0
    3.9250   -4.9750    0.0000 C   0  0  0  0  0  0  0  0  0  0  0  0
    4.6375   -5.3875    0.0000 C   0  0  0  0  0  0  0  0  0  0  0  0
    3.9250   -4.1500    0.0000 C   0  0  0  0  0  0  0  0  0  0  0  0
  2  1  3  0
  3  2  1  0
  4  3  1  0
  5  4  2  0
  6  5  1  0
  7  8  1  0
  8  3  2  0
  9  7  2  0
  9  5  1  0
M  END

> <chembl_id>
CHEMBL294016

> <chembl_pref_name>
None

$$$$

     RDKit          2D

  8  8  0  0  0  0  0  0  0  0999 V2000
    1.6250    2.0208    0.0000 C   0  0  0  0  0  0  0  0  0  0  0  0
    1.2125    1.3083    0.0000 C   0  0  0  0  0  0  0  0  0  0  0  0
    1.2042    2.7375    0.0000 F   0  0  0  0  0  0  0  0  0  0  0  0
    0.3875    1.3083    0.0000 C   0  0  0  0  0  0  0  0  0  0  0  0
    2.4542    2.0208    0.0000 C   0  0  0  0  0  0  0  0  0  0  0  0
    1.6250    0.5958    0.0000 C   0  0  0  0  0  0  0  0  0  0  0  0
    2.4542    0.5958    0.0000 C   0  0  0  0  0  0  0  0  0  0  0  0
    2.8667    1.3083    0.0000 C   0  0  0  0  0  0  0  0  0  0  0  0
  2  1  1  0
  3  1  1  0
  4  2  1  0
  5  1  2  0
  6  2  2  0
  7  8  2  0
  8  5  1  0
  7  6  1  0
M  END

> <chembl_id>
CHEMBL352215

> <chembl_pref_name>
None

$$$$

     RDKit          2D

  9  9  0  0  0  0  0  0  0  0999 V2000
   12.2250   -7.6875    0.0000 C   0  0  0  0  0  0  0  0  0  0  0  0
   12.2250   -8.5125    0.0000 C   0  0  0  0  0  0  0  0  0  0  0  0
   12.9370   -8.9208    0.0000 C   0  0  0  0  0  0  0  0  0  0  0  0
   13.6490   -8.5125    0.0000 C   0  0  0  0  0  0  0  0  0  0  0  0
   13.6490   -7.6875    0.0000 O   0  0  0  0  0  0  0  0  0  0  0  0
   12.9370   -7.2708    0.0000 C   0  0  0  0  0  0  0  0  0  0  0  0
   14.3629   -8.9260    0.0000 C   0  0  0  0  0  0  0  0  0  0  0  0
   12.9370   -6.4458    0.0000 C   0  0  0  0  0  0  0  0  0  0  0  0
   11.5111   -8.9260    0.0000 O   0  0  0  0  0  0  0  0  0  0  0  0
  2  3  1  0
  3  4  2  0
  4  5  1  0
  5  6  1  0
  4  7  1  0
  1  2  1  0
  6  8  1  0
  1  6  2  0
  2  9  2  0
M  END

> <chembl_id>
CHEMBL223295

> <chembl_pref_name>
None

$$$$

     RDKit          2D

  7  7  0  0  0  0  0  0  0  0999 V2000
   19.8401  -23.8525    0.0000 S   0  0  0  0  0  0  0  0  0  0  0  0
   20.6651  -23.8525    0.0000 C   0  0  0  0  0  0  0  0  0  0  0  0
   20.9219  -23.0684    0.0000 C   0  0  0  0  0  0  0  0  0  0  0  0
   20.2526  -22.5816    0.0000 N   0  0  0  0  0  0  0  0  0  0  0  0
   19.5877  -23.0684    0.0000 C   0  0  0  0  0  0  0  0  0  0  0  0
   21.7068  -22.8145    0.0000 O   0  0  0  0  0  0  0  0  0  0  0  0
   18.8030  -22.8138    0.0000 O   0  0  0  0  0  0  0  0  0  0  0  0
  2  3  2  0
  3  4  1  0
  4  5  2  0
  5  1  1  0
  1  2  1  0
  3  6  1  0
  5  7  1  0
M  END

> <chembl_id>
CHEMBL2071163

> <chembl_pref_name>
None

$$$$

     RDKit          2D

  8  8  0  0  0  0  0  0  0  0999 V2000
    0.1318    1.2085    0.0000 O   0  0  0  0  0  0  0  0  0  0  0  0
    0.7992   -0.1014    0.0000 N   0  0  0  0  0  0  0  0  0  0  0  0
    0.5443   -0.8860    0.0000 N   0  0  0  0  0  0  0  0  0  0  0  0
   -0.5356   -0.1014    0.0000 C   0  0  0  0  0  0  0  0  0  0  0  0
    0.1318    0.3835    0.0000 C   0  0  0  0  0  0  0  0  0  0  0  0
   -0.2807   -0.8860    0.0000 C   0  0  0  0  0  0  0  0  0  0  0  0
   -1.3203    0.1536    0.0000 C   0  0  0  0  0  0  0  0  0  0  0  0
   -0.7656   -1.5534    0.0000 C   0  0  0  0  0  0  0  0  0  0  0  0
  1  5  1  0
  2  3  1  0
  2  5  1  0
  3  6  2  0
  4  5  2  0
  4  6  1  0
  4  7  1  0
  6  8  1  0
M  END

> <chembl_id>
CHEMBL1476106

> <chembl_pref_name>
None

$$$$

     RDKit          2D

 11 12  0  0  0  0  0  0  0  0999 V2000
   -4.5698   -0.6855    0.0000 C   0  0  0  0  0  0  0  0  0  0  0  0
   -3.8874   -1.1492    0.0000 N   0  0  0  0  0  0  0  0  0  0  0  0
   -3.2356   -0.6435    0.0000 C   0  0  0  0  0  0  0  0  0  0  0  0
   -3.5151    0.1328    0.0000 C   0  0  0  0  0  0  0  0  0  0  0  0
   -4.3397    0.1067    0.0000 C   0  0  0  0  0  0  0  0  0  0  0  0
   -3.0522    0.8127    0.0000 C   0  0  0  0  0  0  0  0  0  0  0  0
   -2.2258    0.8114    0.0000 N   0  0  0  0  0  0  0  0  0  0  0  0
   -1.8134    1.5251    0.0000 C   0  0  0  0  0  0  0  0  0  0  0  0
   -2.2259    2.2406    0.0000 C   0  0  0  0  0  0  0  0  0  0  0  0
   -3.0553    2.2379    0.0000 C   0  0  0  0  0  0  0  0  0  0  0  0
   -3.4639    1.5237    0.0000 C   0  0  0  0  0  0  0  0  0  0  0  0
  1  2  1  0
  6  7  2  0
  2  3  1  0
  7  8  1  0
  3  4  1  0
  8  9  2  0
  4  5  2  0
  9 10  1  0
  5  1  1  0
 10 11  2  0
 11  6  1  0
  4  6  1  0
M  END

> <chembl_id>
CHEMBL239685

> <chembl_pref_name>
None

$$$$

     RDKit          2D

  8  8  0  0  0  0  0  0  0  0999 V2000
   -3.0296   -3.7778    0.0000 C   0  0  0  0  0  0  0  0  0  0  0  0
   -3.0308   -4.6049    0.0000 C   0  0  0  0  0  0  0  0  0  0  0  0
   -2.3161   -5.0177    0.0000 N   0  0  0  0  0  0  0  0  0  0  0  0
   -1.5999   -4.6044    0.0000 C   0  0  0  0  0  0  0  0  0  0  0  0
   -1.6028   -3.7742    0.0000 C   0  0  0  0  0  0  0  0  0  0  0  0
   -2.3179   -3.3652    0.0000 C   0  0  0  0  0  0  0  0  0  0  0  0
   -0.8851   -5.0157    0.0000 F   0  0  0  0  0  0  0  0  0  0  0  0
   -3.7453   -5.0167    0.0000 F   0  0  0  0  0  0  0  0  0  0  0  0
  4  5  1  0
  2  3  1  0
  5  6  2  0
  6  1  1  0
  1  2  2  0
  4  7  1  0
  3  4  2  0
  2  8  1  0
M  END

> <chembl_id>
CHEMBL449478

> <chembl_pref_name>
None

$$$$

     RDKit          2D

  7  7  0  0  0  0  0  0  0  0999 V2000
    7.7669   -4.9131    0.0000 N   0  0  0  0  0  0  0  0  0  0  0  0
    8.0184   -5.6975    0.0000 N   0  0  0  0  0  0  0  0  0  0  0  0
    7.3527   -6.1794    0.0000 C   0  0  0  0  0  0  0  0  0  0  0  0
    6.6868   -5.6975    0.0000 C   0  0  0  0  0  0  0  0  0  0  0  0
    6.9425   -4.9131    0.0000 C   0  0  0  0  0  0  0  0  0  0  0  0
    7.3527   -7.0075    0.0000 C   0  0  0  0  0  0  0  0  0  0  0  0
    6.6354   -7.4216    0.0000 O   0  0  0  0  0  0  0  0  0  0  0  0
  1  2  1  0
  2  3  2  0
  3  4  1  0
  4  5  2  0
  1  5  1  0
  3  6  1  0
  6  7  1  0
M  END

> <chembl_id>
CHEMBL3275945

> <chembl_pref_name>
None

$$$$

     RDKit          2D

 10 10  0  0  0  0  0  0  0  0999 V2000
    2.9114   -2.9761    0.0000 C   0  0  0  0  0  0  0  0  0  0  0  0
    2.9114   -3.8011    0.0000 C   0  0  0  0  0  0  0  0  0  0  0  0
    3.6259   -4.2136    0.0000 C   0  0  0  0  0  0  0  0  0  0  0  0
    4.3404   -3.8011    0.0000 C   0  0  0  0  0  0  0  0  0  0  0  0
    4.3404   -2.9761    0.0000 C   0  0  0  0  0  0  0  0  0  0  0  0
    3.6259   -2.5636    0.0000 C   0  0  0  0  0  0  0  0  0  0  0  0
    3.6259   -1.7386    0.0000 O   0  0  0  0  0  0  0  0  0  0  0  0
    5.0549   -2.5636    0.0000 O   0  0  0  0  0  0  0  0  0  0  0  0
    5.0549   -1.7386    0.0000 C   0  0  0  0  0  0  0  0  0  0  0  0
    3.6259   -5.0386    0.0000 O   0  0  0  0  0  0  0  0  0  0  0  0
  2  3  1  0
  5  6  2  0
  6  1  1  0
  1  2  2  0
  6  7  1  0
  3  4  2  0
  5  8  1  0
  8  9  1  0
  4  5  1  0
  3 10  1  0
M  END

> <chembl_id>
CHEMBL551075

> <chembl_pref_name>
None

$$$$

     RDKit          2D

  9  9  0  0  0  0  0  0  0  0999 V2000
    8.3312  -13.0212    0.0000 N   0  0  0  0  0  0  0  0  0  0  0  0
    7.6168  -13.4337    0.0000 C   0  0  0  0  0  0  0  0  0  0  0  0
    7.6168  -14.2587    0.0000 C   0  0  0  0  0  0  0  0  0  0  0  0
    6.9023  -14.6712    0.0000 C   0  0  0  0  0  0  0  0  0  0  0  0
    6.1878  -14.2587    0.0000 C   0  0  0  0  0  0  0  0  0  0  0  0
    6.1878  -13.4337    0.0000 C   0  0  0  0  0  0  0  0  0  0  0  0
    6.9023  -13.0212    0.0000 C   0  0  0  0  0  0  0  0  0  0  0  0
    5.4733  -14.6712    0.0000 F   0  0  0  0  0  0  0  0  0  0  0  0
    8.3312  -14.6712    0.0000 Cl  0  0  0  0  0  0  0  0  0  0  0  0
  1  2  1  0
  2  3  1  0
  3  4  2  0
  4  5  1  0
  5  6  2  0
  6  7  1  0
  2  7  2  0
  5  8  1  0
  3  9  1  0
M  END

> <chembl_id>
CHEMBL2323849

> <chembl_pref_name>
None

$$$$

     RDKit          2D

 10 10  0  0  0  0  0  0  0  0999 V2000
    1.2376   -1.4078    0.0000 N   0  0  0  0  0  0  0  0  0  0  0  0
    0.4338   -1.4078    0.0000 C   0  0  0  0  0  0  0  0  0  0  0  0
    1.6799   -0.7017    0.0000 C   0  0  0  0  0  0  0  0  0  0  0  0
    1.6375   -2.1308    0.0000 C   0  0  0  0  0  0  0  0  0  0  0  0
    0.0000   -0.7017    0.0000 C   0  0  0  0  0  0  0  0  0  0  0  0
    1.2376    0.0000    0.0000 C   0  0  0  0  0  0  0  0  0  0  0  0
    0.4338    0.0000    0.0000 C   0  0  0  0  0  0  0  0  0  0  0  0
    1.2164   -2.8538    0.0000 C   0  0  0  0  0  0  0  0  0  0  0  0
    1.6204   -3.5513    0.0000 C   0  0  0  0  0  0  0  0  0  0  0  0
    1.2164   -4.2531    0.0000 C   0  0  0  0  0  0  0  0  0  0  0  0
  1  2  2  0
  1  3  1  0
  1  4  1  0
  2  5  1  0
  3  6  2  0
  4  8  1  0
  5  7  2  0
  6  7  1  0
  8  9  1  0
  9 10  1  0
M  CHG  1   1   1
M  END

> <chembl_id>
CHEMBL443525

> <chembl_pref_name>
None

$$$$

     RDKit          2D

  8  8  0  0  0  0  0  0  0  0999 V2000
    2.2601    3.8479    0.0000 C   0  0  0  0  0  0  0  0  0  0  0  0
    0.5000    2.5691    0.0000 C   0  0  0  0  0  0  0  0  0  0  0  0
    2.2601    2.8479    0.0000 C   0  0  0  0  0  0  0  0  0  0  0  0
    1.4511    2.2601    0.0000 C   0  0  0  0  0  0  0  0  0  0  0  0
    2.7601    1.3090    0.0000 C   0  0  0  0  0  0  0  0  0  0  0  0
    3.3479    0.5000    0.0000 N   0  0  0  0  0  0  0  0  0  0  0  0
    3.0691    2.2601    0.0000 N   0  0  0  0  0  0  0  0  0  0  0  0
    1.7601    1.3090    0.0000 S   0  0  0  0  0  0  0  0  0  0  0  0
  1  3  1  0
  2  4  1  0
  3  4  2  0
  3  7  1  0
  4  8  1  0
  5  6  2  0
  5  7  1  0
  5  8  1  0
M  END

> <chembl_id>
CHEMBL450172

> <chembl_pref_name>
None

$$$$

     RDKit          2D

 11 12  0  0  0  0  0  0  0  0999 V2000
    3.8984    0.7179    0.0000 C   0  0  0  0  0  0  0  0  0  0  0  0
    3.8972   -0.1078    0.0000 C   0  0  0  0  0  0  0  0  0  0  0  0
    4.6084   -0.5196    0.0000 C   0  0  0  0  0  0  0  0  0  0  0  0
    4.6064    1.1297    0.0000 C   0  0  0  0  0  0  0  0  0  0  0  0
    5.3228    0.7218    0.0000 C   0  0  0  0  0  0  0  0  0  0  0  0
    5.3234   -0.1031    0.0000 C   0  0  0  0  0  0  0  0  0  0  0  0
    6.1082   -0.3576    0.0000 C   0  0  0  0  0  0  0  0  0  0  0  0
    6.5928    0.3102    0.0000 C   0  0  0  0  0  0  0  0  0  0  0  0
    6.1073    0.9773    0.0000 C   0  0  0  0  0  0  0  0  0  0  0  0
    6.3611    1.7601    0.0000 O   0  0  0  0  0  0  0  0  0  0  0  0
    6.3630   -1.1401    0.0000 O   0  0  0  0  0  0  0  0  0  0  0  0
  2  3  1  0
  3  6  2  0
  1  2  2  0
  5  4  2  0
  6  7  1  0
  7  8  1  0
  8  9  1  0
  9  5  1  0
  4  1  1  0
  9 10  2  0
  5  6  1  0
  7 11  2  0
M  END

> <chembl_id>
CHEMBL283521

> <chembl_pref_name>
None

$$$$

     RDKit          2D

  9  9  0  0  0  0  0  0  0  0999 V2000
    4.1000   -5.7542    0.0000 N   0  0  0  0  0  0  0  0  0  0  0  0
    5.3917   -6.4625    0.0000 C   0  0  0  0  0  0  0  0  0  0  0  0
    4.5667   -6.4417    0.0000 C   0  0  0  0  0  0  0  0  0  0  0  0
    6.2164   -6.4833    0.0000 C   0  0  0  0  0  0  0  0  0  0  0  0
    3.2792   -6.8167    0.0000 N   0  0  0  0  0  0  0  0  0  0  0  0
    3.3042   -5.9917    0.0000 C   0  0  0  0  0  0  0  0  0  0  0  0
    4.0625   -7.0917    0.0000 C   0  0  0  0  0  0  0  0  0  0  0  0
    7.6097   -7.0978    0.0000 N   0  0  0  0  0  0  0  0  0  0  0  0
    7.0412   -6.5041    0.0000 C   0  0  0  0  0  0  0  0  0  0  0  0
  2  3  1  0
  3  1  1  0
  4  2  3  0
  5  6  1  0
  6  1  2  0
  7  3  2  0
  8  9  1  0
  9  4  1  0
  7  5  1  0
M  END

> <chembl_id>
CHEMBL116536

> <chembl_pref_name>
None

$$$$

     RDKit          2D

 10 10  0  0  0  0  0  0  0  0999 V2000
   -1.5427   -1.2569    0.0000 O   0  0  0  0  0  0  0  0  0  0  0  0
   -1.1011    0.1021    0.0000 O   0  0  0  0  0  0  0  0  0  0  0  0
   -0.9296   -0.7049    0.0000 N   0  0  0  0  0  0  0  0  0  0  0  0
    1.1899   -0.9598    0.0000 N   0  0  0  0  0  0  0  0  0  0  0  0
    0.9349   -1.7445    0.0000 N   0  0  0  0  0  0  0  0  0  0  0  0
    0.5224    0.3501    0.0000 N   0  0  0  0  0  0  0  0  0  0  0  0
   -0.1450   -0.9598    0.0000 C   0  0  0  0  0  0  0  0  0  0  0  0
    0.5224   -0.4749    0.0000 C   0  0  0  0  0  0  0  0  0  0  0  0
    0.1099   -1.7445    0.0000 C   0  0  0  0  0  0  0  0  0  0  0  0
   -0.1920    0.7626    0.0000 C   0  0  0  0  0  0  0  0  0  0  0  0
  1  3  1  0
  2  3  2  0
  3  7  1  0
  4  5  1  0
  4  8  1  0
  5  9  2  0
  6  8  1  0
  6 10  1  0
  7  8  2  0
  7  9  1  0
M  CHG  2   1  -1   3   1
M  END

> <chembl_id>
CHEMBL1386869

> <chembl_pref_name>
None

$$$$

     RDKit          2D

 10 10  0  0  0  0  0  0  0  0999 V2000
    1.4289    0.5115    0.0000 O   0  0  0  0  0  0  0  0  0  0  0  0
    0.0000   -1.9635    0.0000 O   0  0  0  0  0  0  0  0  0  0  0  0
    0.0000    0.5115    0.0000 N   0  0  0  0  0  0  0  0  0  0  0  0
    0.7145    0.0990    0.0000 C   0  0  0  0  0  0  0  0  0  0  0  0
   -0.7145    0.0990    0.0000 C   0  0  0  0  0  0  0  0  0  0  0  0
    0.0000   -1.1385    0.0000 C   0  0  0  0  0  0  0  0  0  0  0  0
    0.7145   -0.7260    0.0000 C   0  0  0  0  0  0  0  0  0  0  0  0
   -0.7145   -0.7260    0.0000 C   0  0  0  0  0  0  0  0  0  0  0  0
    0.0000    1.3365    0.0000 C   0  0  0  0  0  0  0  0  0  0  0  0
   -1.4289    0.5115    0.0000 C   0  0  0  0  0  0  0  0  0  0  0  0
  1  4  2  0
  2  6  1  0
  3  4  1  0
  3  5  1  0
  3  9  1  0
  4  7  1  0
  5  8  2  0
  5 10  1  0
  6  7  2  0
  6  8  1  0
M  END

> <chembl_id>
CHEMBL1895084

> <chembl_pref_name>
None

$$$$

     RDKit          2D

 10 10  0  0  0  0  0  0  0  0999 V2000
    1.2990   -0.7500    0.0000 C   0  0  0  0  0  0  0  0  0  0  0  0
    1.2990    0.7500    0.0000 C   0  0  0  0  0  0  0  0  0  0  0  0
    0.0000    1.5000    0.0000 N   0  0  0  0  0  0  0  0  0  0  0  0
   -1.2990    0.7500    0.0000 C   0  0  0  0  0  0  0  0  0  0  0  0
   -1.2990   -0.7500    0.0000 C   0  0  0  0  0  0  0  0  0  0  0  0
    0.0000   -1.5000    0.0000 C   0  0  0  0  0  0  0  0  0  0  0  0
    0.0000   -2.7000    0.0000 O   0  0  0  0  0  0  0  0  0  0  0  0
    0.0000    2.7000    0.0000 C   0  0  0  0  0  0  0  0  0  0  0  0
   -2.3383   -1.3500    0.0000 O   0  0  0  0  0  0  0  0  0  0  0  0
   -2.3383    1.3500    0.0000 F   0  0  0  0  0  0  0  0  0  0  0  0
  1  2  2  0
  1  6  1  0
  2  3  1  0
  3  4  1  0
  4  5  2  0
  5  6  1  0
  6  7  2  0
  3  8  1  0
  5  9  1  0
  4 10  1  0
M  END

> <chembl_id>
CHEMBL3787377

> <chembl_pref_name>
None

$$$$

     RDKit          2D

  8  8  0  0  0  0  0  0  0  0999 V2000
    4.7417   -2.1542    0.0000 C   0  0  0  0  0  0  0  0  0  0  0  0
    5.4625   -2.5667    0.0000 C   0  0  0  0  0  0  0  0  0  0  0  0
    4.7417   -1.3292    0.0000 S   0  0  0  0  0  0  0  0  0  0  0  0
    6.1750   -2.1542    0.0000 N   0  0  0  0  0  0  0  0  0  0  0  0
    4.0292   -2.5750    0.0000 C   0  0  0  0  0  0  0  0  0  0  0  0
    5.4625   -3.4000    0.0000 C   0  0  0  0  0  0  0  0  0  0  0  0
    4.7417   -3.8125    0.0000 C   0  0  0  0  0  0  0  0  0  0  0  0
    4.0292   -3.4000    0.0000 C   0  0  0  0  0  0  0  0  0  0  0  0
  2  1  2  0
  3  1  1  0
  4  2  1  0
  5  1  1  0
  6  2  1  0
  7  8  1  0
  8  5  2  0
  7  6  2  0
M  END

> <chembl_id>
CHEMBL116835

> <chembl_pref_name>
None

$$$$

     RDKit          2D

  9  9  0  0  0  0  0  0  0  0999 V2000
   -0.5261    2.2487    0.0000 C   0  0  0  0  0  0  0  0  0  0  0  0
   -0.5273    1.4219    0.0000 C   0  0  0  0  0  0  0  0  0  0  0  0
    0.1871    1.0092    0.0000 N   0  0  0  0  0  0  0  0  0  0  0  0
    0.9032    1.4223    0.0000 N   0  0  0  0  0  0  0  0  0  0  0  0
    0.9003    2.2524    0.0000 C   0  0  0  0  0  0  0  0  0  0  0  0
    0.1853    2.6612    0.0000 C   0  0  0  0  0  0  0  0  0  0  0  0
    1.6144    2.6675    0.0000 C   0  0  0  0  0  0  0  0  0  0  0  0
    2.3299    2.2580    0.0000 O   0  0  0  0  0  0  0  0  0  0  0  0
    1.6113    3.4920    0.0000 O   0  0  0  0  0  0  0  0  0  0  0  0
  4  5  1  0
  2  3  1  0
  5  6  2  0
  6  1  1  0
  1  2  2  0
  3  4  2  0
  7  8  1  0
  7  9  2  0
  5  7  1  0
M  END

> <chembl_id>
CHEMBL395179

> <chembl_pref_name>
None

$$$$

     RDKit          2D

 10 10  0  0  0  0  0  0  0  0999 V2000
   -2.7707  -27.1074    0.0000 C   0  0  0  0  0  0  0  0  0  0  0  0
   -1.9463  -27.1086    0.0000 C   0  0  0  0  0  0  0  0  0  0  0  0
   -1.5349  -26.3962    0.0000 C   0  0  0  0  0  0  0  0  0  0  0  0
   -1.9468  -25.6824    0.0000 C   0  0  0  0  0  0  0  0  0  0  0  0
   -2.7743  -25.6852    0.0000 C   0  0  0  0  0  0  0  0  0  0  0  0
   -3.1820  -26.3980    0.0000 C   0  0  0  0  0  0  0  0  0  0  0  0
   -0.7087  -26.3964    0.0000 C   0  0  0  0  0  0  0  0  0  0  0  0
    0.1169  -26.3924    0.0000 C   0  0  0  0  0  0  0  0  0  0  0  0
   -4.0082  -26.4005    0.0000 C   0  0  0  0  0  0  0  0  0  0  0  0
   -4.8362  -26.3924    0.0000 C   0  0  0  0  0  0  0  0  0  0  0  0
  2  3  1  0
  5  6  2  0
  6  1  1  0
  1  2  2  0
  3  7  1  0
  3  4  2  0
  7  8  3  0
  6  9  1  0
  4  5  1  0
  9 10  3  0
M  END

> <chembl_id>
CHEMBL224048

> <chembl_pref_name>
None

$$$$

     RDKit          2D

 11 11  0  0  0  0  0  0  0  0999 V2000
   -0.5332    1.1218    0.0000 C   0  0  0  0  0  0  0  0  0  0  0  0
   -0.5396    0.1218    0.0000 C   0  0  0  0  0  0  0  0  0  0  0  0
   -1.4088   -0.3726    0.0000 C   0  0  0  0  0  0  0  0  0  0  0  0
   -1.4152   -1.3726    0.0000 C   0  0  0  0  0  0  0  0  0  0  0  0
   -2.2844   -1.8670    0.0000 C   0  0  0  0  0  0  0  0  0  0  0  0
   -3.1536   -2.3614    0.0000 N   0  0  0  0  0  0  0  0  0  0  0  0
   -0.5524   -1.8782    0.0000 C   0  0  0  0  0  0  0  0  0  0  0  0
    0.3168   -1.3838    0.0000 C   0  0  0  0  0  0  0  0  0  0  0  0
    0.3232   -0.3838    0.0000 C   0  0  0  0  0  0  0  0  0  0  0  0
    1.1924    0.1106    0.0000 C   0  0  0  0  0  0  0  0  0  0  0  0
    2.0552   -0.3948    0.0000 O   0  0  0  0  0  0  0  0  0  0  0  0
  1  2  1  0
  2  3  2  0
  3  4  1  0
  4  5  1  0
  5  6  3  0
  4  7  2  0
  7  8  1  0
  8  9  2  0
  9 10  1  0
 10 11  1  0
  9  2  1  0
M  END

> <chembl_id>
CHEMBL4542244

> <chembl_pref_name>
None

$$$$

     RDKit          2D

 10 10  0  0  0  0  0  0  0  0999 V2000
    1.8167   -4.1667    0.0000 N   0  0  0  0  0  0  0  0  0  0  0  0
    3.0542   -4.1667    0.0000 N   0  0  0  0  0  0  0  0  0  0  0  0
    2.4292   -3.0875    0.0000 C   0  0  0  0  0  0  0  0  0  0  0  0
    3.0542   -3.4500    0.0000 C   0  0  0  0  0  0  0  0  0  0  0  0
    1.8167   -3.4500    0.0000 C   0  0  0  0  0  0  0  0  0  0  0  0
    2.4292   -2.3625    0.0000 C   0  0  0  0  0  0  0  0  0  0  0  0
    3.0542   -2.0000    0.0000 C   0  0  0  0  0  0  0  0  0  0  0  0
    3.6792   -0.9167    0.0000 C   0  0  0  0  0  0  0  0  0  0  0  0
    3.0542   -1.2792    0.0000 C   0  0  0  0  0  0  0  0  0  0  0  0
    3.6792   -0.1917    0.0000 C   0  0  0  0  0  0  0  0  0  0  0  0
  2  1  1  0
  3  5  1  0
  4  2  1  0
  5  1  2  0
  6  3  1  0
  7  6  1  0
  8  9  1  0
  9  7  1  0
 10  8  1  0
  4  3  2  0
M  END

> <chembl_id>
CHEMBL156094

> <chembl_pref_name>
None

$$$$

     RDKit          2D

 11 11  0  0  0  0  0  0  0  0999 V2000
    1.2990   -0.7500    0.0000 C   0  0  0  0  0  0  0  0  0  0  0  0
    1.2990    0.7500    0.0000 C   0  0  0  0  0  0  0  0  0  0  0  0
    0.0000    1.5000    0.0000 C   0  0  0  0  0  0  0  0  0  0  0  0
   -1.2990    0.7500    0.0000 C   0  0  0  0  0  0  0  0  0  0  0  0
   -1.2990   -0.7500    0.0000 C   0  0  0  0  0  0  0  0  0  0  0  0
    0.0000   -1.5000    0.0000 C   0  0  0  0  0  0  0  0  0  0  0  0
    0.0000   -2.7000    0.0000 C   0  0  0  0  0  0  0  0  0  0  0  0
   -2.3383    1.3500    0.0000 C   0  0  0  0  0  0  0  0  0  0  0  0
    2.3383    1.3500    0.0000 O   0  0  0  0  0  0  0  0  0  0  0  0
   -2.5988   -1.5004    0.0000 C   0  0  0  0  0  0  0  0  0  0  0  0
   -3.6380   -2.1004    0.0000 N   0  0  0  0  0  0  0  0  0  0  0  0
  1  2  2  0
  2  3  1  0
  3  4  2  0
  4  5  1  0
  5  6  2  0
  6  1  1  0
  6  7  1  0
  4  8  1  0
  2  9  1  0
 10 11  3  0
  5 10  1  0
M  END

> <chembl_id>
CHEMBL3765491

> <chembl_pref_name>
None

$$$$

     RDKit          2D

  9  9  0  0  0  0  0  0  0  0999 V2000
    1.9292   -3.6417    0.0000 N   0  0  0  0  0  0  0  0  0  0  0  0
    1.9292   -4.4667    0.0000 O   0  0  0  0  0  0  0  0  0  0  0  0
    2.6417   -3.2292    0.0000 C   0  0  0  0  0  0  0  0  0  0  0  0
    2.6417   -2.4042    0.0000 C   0  0  0  0  0  0  0  0  0  0  0  0
    1.2167   -3.2292    0.0000 C   0  0  0  0  0  0  0  0  0  0  0  0
    4.0750   -2.3917    0.0000 N   0  0  0  0  0  0  0  0  0  0  0  0
    1.2167   -2.4042    0.0000 C   0  0  0  0  0  0  0  0  0  0  0  0
    3.3542   -1.9875    0.0000 C   0  0  0  0  0  0  0  0  0  0  0  0
    1.9292   -1.9917    0.0000 C   0  0  0  0  0  0  0  0  0  0  0  0
  2  1  1  0
  3  1  2  0
  4  3  1  0
  5  1  1  0
  6  8  1  0
  7  5  2  0
  8  4  1  0
  9  7  1  0
  9  4  2  0
M  CHG  2   1   1   2  -1
M  END

> <chembl_id>
CHEMBL72698

> <chembl_pref_name>
None

$$$$

     RDKit          2D

 11 11  0  0  0  0  0  0  0  0999 V2000
    6.2569  -11.3994    0.0000 C   0  0  0  0  0  0  0  0  0  0  0  0
    6.9687  -10.9867    0.0000 C   0  0  0  0  0  0  0  0  0  0  0  0
    5.5492  -10.9867    0.0000 C   0  0  0  0  0  0  0  0  0  0  0  0
    4.8373  -11.3994    0.0000 N   0  0  0  0  0  0  0  0  0  0  0  0
    5.5492  -10.1654    0.0000 O   0  0  0  0  0  0  0  0  0  0  0  0
    4.1255  -10.9867    0.0000 C   0  0  0  0  0  0  0  0  0  0  0  0
    4.1306  -10.1643    0.0000 C   0  0  0  0  0  0  0  0  0  0  0  0
    3.4196   -9.7558    0.0000 C   0  0  0  0  0  0  0  0  0  0  0  0
    2.7068  -10.1644    0.0000 C   0  0  0  0  0  0  0  0  0  0  0  0
    2.7095  -10.9900    0.0000 C   0  0  0  0  0  0  0  0  0  0  0  0
    3.4210  -11.3989    0.0000 N   0  0  0  0  0  0  0  0  0  0  0  0
  1  2  2  0
  1  3  1  0
  3  4  1  0
  3  5  2  0
  4  6  1  0
  6  7  2  0
  7  8  1  0
  8  9  2  0
  9 10  1  0
 10 11  2  0
 11  6  1  0
M  END

> <chembl_id>
CHEMBL2426254

> <chembl_pref_name>
None

$$$$

     RDKit          2D

  9  9  0  0  0  0  0  0  0  0999 V2000
   11.2071   -9.4837    0.0000 O   0  0  0  0  0  0  0  0  0  0  0  0
   11.9239   -9.0710    0.0000 C   0  0  0  0  0  0  0  0  0  0  0  0
   12.6483   -9.4874    0.0000 C   0  0  0  0  0  0  0  0  0  0  0  0
   11.2112  -10.3108    0.0000 C   0  0  0  0  0  0  0  0  0  0  0  0
   11.9356  -10.7273    0.0000 N   0  0  0  0  0  0  0  0  0  0  0  0
   12.6416  -10.3082    0.0000 C   0  0  0  0  0  0  0  0  0  0  0  0
   11.9270   -8.2480    0.0000 O   0  0  0  0  0  0  0  0  0  0  0  0
   10.5016  -10.7277    0.0000 O   0  0  0  0  0  0  0  0  0  0  0  0
   13.3615   -9.0726    0.0000 F   0  0  0  0  0  0  0  0  0  0  0  0
  2  1  1  0
  3  2  1  0
  4  1  1  0
  5  4  1  0
  6  5  1  0
  7  2  2  0
  8  4  2  0
  9  3  1  0
  6  3  2  0
M  END

> <chembl_id>
CHEMBL3250626

> <chembl_pref_name>
None

$$$$

     RDKit          2D

 10 10  0  0  0  0  0  0  0  0999 V2000
   -5.0534    0.8146    0.0000 C   0  0  0  0  0  0  0  0  0  0  0  0
   -5.0547   -0.0118    0.0000 C   0  0  0  0  0  0  0  0  0  0  0  0
   -4.3429   -0.4239    0.0000 C   0  0  0  0  0  0  0  0  0  0  0  0
   -3.6247   -0.0112    0.0000 C   0  0  0  0  0  0  0  0  0  0  0  0
   -3.6279    0.8185    0.0000 C   0  0  0  0  0  0  0  0  0  0  0  0
   -4.3448    1.2267    0.0000 C   0  0  0  0  0  0  0  0  0  0  0  0
   -2.9166    1.2340    0.0000 C   0  0  0  0  0  0  0  0  0  0  0  0
   -2.2012    0.8257    0.0000 N   0  0  0  0  0  0  0  0  0  0  0  0
   -2.9206    2.0575    0.0000 N   0  0  0  0  0  0  0  0  0  0  0  0
   -2.2094    2.4730    0.0000 O   0  0  0  0  0  0  0  0  0  0  0  0
  2  3  1  0
  5  6  2  0
  6  1  1  0
  1  2  2  0
  5  7  1  0
  3  4  2  0
  7  8  1  0
  7  9  2  0
  4  5  1  0
  9 10  1  0
M  END

> <chembl_id>
CHEMBL335598

> <chembl_pref_name>
BENZAMIDOXIME

$$$$

     RDKit          2D

 10 10  0  0  0  0  0  0  0  0999 V2000
    5.9246   -4.4310    0.0000 C   0  0  0  0  0  0  0  0  0  0  0  0
    5.9235   -5.2579    0.0000 C   0  0  0  0  0  0  0  0  0  0  0  0
    6.6379   -5.6705    0.0000 C   0  0  0  0  0  0  0  0  0  0  0  0
    7.3539   -5.2574    0.0000 C   0  0  0  0  0  0  0  0  0  0  0  0
    7.3511   -4.4274    0.0000 C   0  0  0  0  0  0  0  0  0  0  0  0
    6.6361   -4.0184    0.0000 C   0  0  0  0  0  0  0  0  0  0  0  0
    6.6377   -6.4951    0.0000 O   0  0  0  0  0  0  0  0  0  0  0  0
    8.0687   -5.6686    0.0000 O   0  0  0  0  0  0  0  0  0  0  0  0
    5.2091   -5.6696    0.0000 O   0  0  0  0  0  0  0  0  0  0  0  0
    6.6336   -3.1938    0.0000 C   0  0  0  0  0  0  0  0  0  0  0  0
  2  3  1  0
  5  6  2  0
  6  1  1  0
  1  2  2  0
  3  7  1  0
  3  4  2  0
  4  8  1  0
  2  9  1  0
  4  5  1  0
  6 10  1  0
M  END

> <chembl_id>
CHEMBL374735

> <chembl_pref_name>
None

$$$$

     RDKit          2D

 10 10  0  0  0  0  0  0  0  0999 V2000
   -1.3458   -2.6542    0.0000 N   0  0  0  0  0  0  0  0  0  0  0  0
   -0.9250   -1.3792    0.0000 N   0  0  0  0  0  0  0  0  0  0  0  0
   -1.5958   -1.8542    0.0000 C   0  0  0  0  0  0  0  0  0  0  0  0
   -0.5250   -2.6542    0.0000 C   0  0  0  0  0  0  0  0  0  0  0  0
   -0.2708   -1.8750    0.0000 C   0  0  0  0  0  0  0  0  0  0  0  0
   -0.9208   -0.5542    0.0000 C   0  0  0  0  0  0  0  0  0  0  0  0
   -0.2000   -0.1500    0.0000 C   0  0  0  0  0  0  0  0  0  0  0  0
    0.5292    1.0833    0.0000 C   0  0  0  0  0  0  0  0  0  0  0  0
   -0.1958    0.6750    0.0000 C   0  0  0  0  0  0  0  0  0  0  0  0
    0.5375    1.9083    0.0000 C   0  0  0  0  0  0  0  0  0  0  0  0
  2  3  1  0
  3  1  2  0
  4  1  1  0
  5  4  2  0
  6  2  1  0
  7  6  1  0
  8  9  1  0
  9  7  1  0
 10  8  1  0
  2  5  1  0
M  END

> <chembl_id>
CHEMBL96001

> <chembl_pref_name>
None

$$$$

     RDKit          2D

  9  9  0  0  0  0  0  0  0  0999 V2000
    2.3245   -2.6307    0.0000 N   0  0  0  0  0  0  0  0  0  0  0  0
    2.9886   -3.1040    0.0000 N   0  0  0  0  0  0  0  0  0  0  0  0
    3.6440   -2.6187    0.0000 C   0  0  0  0  0  0  0  0  0  0  0  0
    3.3849   -1.8453    0.0000 C   0  0  0  0  0  0  0  0  0  0  0  0
    2.5695   -1.8529    0.0000 C   0  0  0  0  0  0  0  0  0  0  0  0
    2.9961   -3.9211    0.0000 C   0  0  0  0  0  0  0  0  0  0  0  0
    4.4269   -2.8652    0.0000 C   0  0  0  0  0  0  0  0  0  0  0  0
    4.6041   -3.6629    0.0000 O   0  0  0  0  0  0  0  0  0  0  0  0
    5.0292   -2.3129    0.0000 O   0  0  0  0  0  0  0  0  0  0  0  0
  1  2  1  0
  2  3  1  0
  3  4  2  0
  4  5  1  0
  5  1  2  0
  2  6  1  0
  7  8  1  0
  7  9  2  0
  3  7  1  0
M  END

> <chembl_id>
CHEMBL2287221

> <chembl_pref_name>
None

$$$$

     RDKit          2D

  9  9  0  0  0  0  0  0  0  0999 V2000
    1.2440    2.4684    0.0000 O   0  0  0  0  0  0  0  0  0  0  0  0
    1.9585   -1.2441    0.0000 N   0  0  0  0  0  0  0  0  0  0  0  0
    1.9585    1.2309    0.0000 C   0  0  0  0  0  0  0  0  0  0  0  0
    1.9585   -0.4191    0.0000 C   0  0  0  0  0  0  0  0  0  0  0  0
    2.6730    0.8184    0.0000 C   0  0  0  0  0  0  0  0  0  0  0  0
    1.2440    0.8184    0.0000 C   0  0  0  0  0  0  0  0  0  0  0  0
    2.6730   -0.0066    0.0000 C   0  0  0  0  0  0  0  0  0  0  0  0
    1.2440   -0.0066    0.0000 C   0  0  0  0  0  0  0  0  0  0  0  0
    1.9585    2.0559    0.0000 C   0  0  0  0  0  0  0  0  0  0  0  0
  1  9  2  0
  2  4  1  0
  3  5  2  0
  3  6  1  0
  3  9  1  0
  4  7  2  0
  4  8  1  0
  5  7  1  0
  6  8  2  0
M  END

> <chembl_id>
CHEMBL1885510

> <chembl_pref_name>
None

$$$$

     RDKit          2D

  9  9  0  0  0  0  0  0  0  0999 V2000
    1.0052    0.9275    0.0000 O   0  0  0  0  0  0  0  0  0  0  0  0
    0.8337    0.1205    0.0000 C   0  0  0  0  0  0  0  0  0  0  0  0
    1.4468   -0.4315    0.0000 O   0  0  0  0  0  0  0  0  0  0  0  0
    0.0491   -0.1344    0.0000 C   0  0  0  0  0  0  0  0  0  0  0  0
   -0.2058   -0.9191    0.0000 N   0  0  0  0  0  0  0  0  0  0  0  0
   -1.0308   -0.9191    0.0000 S   0  0  0  0  0  0  0  0  0  0  0  0
   -0.6183    0.3505    0.0000 C   0  0  0  0  0  0  0  0  0  0  0  0
   -0.6183    1.1755    0.0000 O   0  0  0  0  0  0  0  0  0  0  0  0
   -1.2858   -0.1344    0.0000 N   0  0  0  0  0  0  0  0  0  0  0  0
  2  1  1  0
  2  3  2  0
  2  4  1  0
  4  5  2  0
  4  7  1  0
  5  6  1  0
  9  6  1  0
  7  8  1  0
  7  9  2  0
M  END

> <chembl_id>
CHEMBL1232973

> <chembl_pref_name>
None

$$$$

     RDKit          2D

 10 10  0  0  0  0  0  0  0  0999 V2000
    5.6417   -5.6167    0.0000 C   0  0  0  0  0  0  0  0  0  0  0  0
    4.9292   -6.0292    0.0000 N   0  0  0  0  0  0  0  0  0  0  0  0
    5.6417   -4.7917    0.0000 C   0  0  0  0  0  0  0  0  0  0  0  0
    4.9292   -4.3792    0.0000 N   0  0  0  0  0  0  0  0  0  0  0  0
    6.3542   -6.0292    0.0000 C   0  0  0  0  0  0  0  0  0  0  0  0
    4.2167   -5.6167    0.0000 C   0  0  0  0  0  0  0  0  0  0  0  0
    4.2167   -4.7917    0.0000 C   0  0  0  0  0  0  0  0  0  0  0  0
    6.3542   -4.3792    0.0000 C   0  0  0  0  0  0  0  0  0  0  0  0
    7.0667   -5.6167    0.0000 C   0  0  0  0  0  0  0  0  0  0  0  0
    6.3542   -6.8542    0.0000 C   0  0  0  0  0  0  0  0  0  0  0  0
  2  1  2  0
  3  1  1  0
  4  3  2  0
  5  1  1  0
  6  2  1  0
  7  4  1  0
  8  3  1  0
  9  5  1  0
 10  5  1  0
  7  6  2  0
M  END

> <chembl_id>
CHEMBL275759

> <chembl_pref_name>
None

$$$$

     RDKit          2D

 10 10  0  0  0  0  0  0  0  0999 V2000
   -0.8008    0.5608    0.0000 O   0  0  0  0  0  0  0  0  0  0  0  0
    0.6281   -1.9142    0.0000 N   0  0  0  0  0  0  0  0  0  0  0  0
   -1.5153   -0.6767    0.0000 N   0  0  0  0  0  0  0  0  0  0  0  0
   -0.0863   -0.6767    0.0000 C   0  0  0  0  0  0  0  0  0  0  0  0
    0.6281   -0.2642    0.0000 C   0  0  0  0  0  0  0  0  0  0  0  0
   -0.8008   -0.2642    0.0000 C   0  0  0  0  0  0  0  0  0  0  0  0
   -0.0863   -1.5017    0.0000 C   0  0  0  0  0  0  0  0  0  0  0  0
    1.3426   -0.6767    0.0000 C   0  0  0  0  0  0  0  0  0  0  0  0
    1.3426   -1.5017    0.0000 C   0  0  0  0  0  0  0  0  0  0  0  0
    0.6281    0.5608    0.0000 C   0  0  0  0  0  0  0  0  0  0  0  0
  1  6  2  0
  2  7  1  0
  2  9  2  0
  3  6  1  0
  4  5  1  0
  4  6  1  0
  4  7  2  0
  5  8  2  0
  5 10  1  0
  8  9  1  0
M  END

> <chembl_id>
CHEMBL1501622

> <chembl_pref_name>
None

$$$$

     RDKit          2D

  9  9  0  0  0  0  0  0  0  0999 V2000
    0.5185   -1.3125    0.0000 C   0  0  0  0  0  0  0  0  0  0  0  0
   -0.3065   -1.3125    0.0000 N   0  0  0  0  0  0  0  0  0  0  0  0
   -0.5615   -0.5279    0.0000 C   0  0  0  0  0  0  0  0  0  0  0  0
    0.1060   -0.0430    0.0000 C   0  0  0  0  0  0  0  0  0  0  0  0
    0.7734   -0.5279    0.0000 S   0  0  0  0  0  0  0  0  0  0  0  0
   -1.3461   -0.2729    0.0000 C   0  0  0  0  0  0  0  0  0  0  0  0
    0.1060    0.7820    0.0000 C   0  0  0  0  0  0  0  0  0  0  0  0
    0.8204    1.1945    0.0000 C   0  0  0  0  0  0  0  0  0  0  0  0
    0.8204    2.0195    0.0000 O   0  0  0  0  0  0  0  0  0  0  0  0
  1  2  2  0
  1  5  1  0
  3  2  1  0
  3  4  2  0
  3  6  1  0
  4  5  1  0
  7  4  1  0
  7  8  1  0
  8  9  1  0
M  END

> <chembl_id>
CHEMBL1236482

> <chembl_pref_name>
None

$$$$

     RDKit          2D

  8  8  0  0  0  0  0  0  0  0999 V2000
    6.3958   -1.4042    0.0000 N   0  0  0  0  0  0  0  0  0  0  0  0
    5.8208   -0.9875    0.0000 N   0  0  0  0  0  0  0  0  0  0  0  0
    6.1792   -2.0792    0.0000 C   0  0  0  0  0  0  0  0  0  0  0  0
    5.4667   -2.0792    0.0000 C   0  0  0  0  0  0  0  0  0  0  0  0
    5.2500   -1.4083    0.0000 C   0  0  0  0  0  0  0  0  0  0  0  0
    6.7958   -2.4333    0.0000 C   0  0  0  0  0  0  0  0  0  0  0  0
    8.0292   -2.4208    0.0000 N   0  0  0  0  0  0  0  0  0  0  0  0
    7.4083   -2.0708    0.0000 C   0  0  0  0  0  0  0  0  0  0  0  0
  2  1  1  0
  3  1  2  0
  4  3  1  0
  5  2  1  0
  6  3  1  0
  7  8  1  0
  8  6  1  0
  5  4  2  0
M  END

> <chembl_id>
CHEMBL1201323

> <chembl_pref_name>
BETAZOLE

$$$$

     RDKit          2D

  9  9  0  0  0  0  0  0  0  0999 V2000
   10.2917  -23.3958    0.0000 C   0  0  0  0  0  0  0  0  0  0  0  0
   10.2917  -24.2208    0.0000 C   0  0  0  0  0  0  0  0  0  0  0  0
   11.0037  -24.6292    0.0000 N   0  0  0  0  0  0  0  0  0  0  0  0
   11.7157  -24.2208    0.0000 C   0  0  0  0  0  0  0  0  0  0  0  0
   11.7157  -23.3958    0.0000 N   0  0  0  0  0  0  0  0  0  0  0  0
   11.0037  -22.9792    0.0000 C   0  0  0  0  0  0  0  0  0  0  0  0
   11.0037  -22.1542    0.0000 O   0  0  0  0  0  0  0  0  0  0  0  0
    9.5778  -24.6344    0.0000 N   0  0  0  0  0  0  0  0  0  0  0  0
   12.4296  -24.6344    0.0000 N   0  0  0  0  0  0  0  0  0  0  0  0
  2  3  1  0
  3  4  1  0
  4  5  2  0
  5  6  1  0
  6  7  2  0
  1  2  2  0
  2  8  1  0
  1  6  1  0
  4  9  1  0
M  END

> <chembl_id>
CHEMBL1255934

> <chembl_pref_name>
None

$$$$

     RDKit          2D

  7  7  0  0  0  0  0  0  0  0999 V2000
   14.2545  -28.4518    0.0000 O   0  0  0  0  0  0  0  0  0  0  0  0
   13.5008  -28.1162    0.0000 C   0  0  0  0  0  0  0  0  0  0  0  0
   13.5870  -27.2957    0.0000 C   0  0  0  0  0  0  0  0  0  0  0  0
   14.3940  -27.1242    0.0000 C   0  0  0  0  0  0  0  0  0  0  0  0
   14.8065  -27.8387    0.0000 C   0  0  0  0  0  0  0  0  0  0  0  0
   12.7863  -28.5287    0.0000 C   0  0  0  0  0  0  0  0  0  0  0  0
   12.0719  -28.1162    0.0000 C   0  0  0  0  0  0  0  0  0  0  0  0
  1  2  1  0
  2  3  2  0
  3  4  1  0
  4  5  2  0
  1  5  1  0
  6  7  1  0
  2  6  1  0
M  END

> <chembl_id>
CHEMBL2269084

> <chembl_pref_name>
2-ETHYLFURAN

$$$$

     RDKit          2D

 10 10  0  0  1  0  0  0  0  0999 V2000
    4.4542   -6.3167    0.0000 N   0  0  0  0  0  0  0  0  0  0  0  0
    4.5167   -5.4917    0.0000 C   0  0  0  0  0  0  0  0  0  0  0  0
    3.2167   -5.8000    0.0000 N   0  0  0  0  0  0  0  0  0  0  0  0
    3.6417   -6.5042    0.0000 C   0  0  0  0  0  0  0  0  0  0  0  0
    3.7542   -5.1667    0.0000 C   0  0  0  0  0  0  0  0  0  0  0  0
    5.2292   -5.0667    0.0000 C   0  0  0  0  0  0  0  0  0  0  0  0
    5.9667   -6.2917    0.0000 N   0  0  0  0  0  0  0  0  0  0  0  0
    5.9500   -5.4667    0.0000 C   0  0  0  0  0  0  0  0  0  0  0  0
    7.3792   -5.4375    0.0000 O   0  0  0  0  0  0  0  0  0  0  0  0
    6.6542   -5.0417    0.0000 C   0  0  0  0  0  0  0  0  0  0  0  0
  2  1  1  0
  3  4  1  0
  4  1  2  0
  5  2  2  0
  6  2  1  0
  8  7  1  1
  8  6  1  0
  9 10  1  0
 10  8  1  0
  3  5  1  0
M  END

> <chembl_id>
CHEMBL278081

> <chembl_pref_name>
HISTIDINOL

$$$$

     RDKit          2D

 11 11  0  0  0  0  0  0  0  0999 V2000
    3.9027   -4.4875    0.0000 C   0  0  0  0  0  0  0  0  0  0  0  0
    3.9016   -5.3148    0.0000 C   0  0  0  0  0  0  0  0  0  0  0  0
    4.6164   -5.7277    0.0000 C   0  0  0  0  0  0  0  0  0  0  0  0
    5.3328   -5.3144    0.0000 C   0  0  0  0  0  0  0  0  0  0  0  0
    5.3300   -4.4838    0.0000 C   0  0  0  0  0  0  0  0  0  0  0  0
    4.6146   -4.0747    0.0000 C   0  0  0  0  0  0  0  0  0  0  0  0
    3.1868   -5.7268    0.0000 C   0  0  0  0  0  0  0  0  0  0  0  0
    2.4726   -5.3137    0.0000 O   0  0  0  0  0  0  0  0  0  0  0  0
    6.0429   -4.0686    0.0000 O   0  0  0  0  0  0  0  0  0  0  0  0
    3.1861   -6.5518    0.0000 C   0  0  0  0  0  0  0  0  0  0  0  0
    2.4713   -6.9637    0.0000 C   0  0  0  0  0  0  0  0  0  0  0  0
  5  6  1  0
  6  1  2  0
  1  2  1  0
  2  7  1  0
  3  4  1  0
  7  8  2  0
  5  9  1  0
  4  5  2  0
  7 10  1  0
  2  3  2  0
 10 11  2  0
M  END

> <chembl_id>
CHEMBL378577

> <chembl_pref_name>
None

$$$$

     RDKit          2D

  9  9  0  0  0  0  0  0  0  0999 V2000
    1.6666    1.2552    0.0000 S   0  0  0  0  0  0  0  0  0  0  0  0
   -0.4768   -0.8073    0.0000 N   0  0  0  0  0  0  0  0  0  0  0  0
    0.2377    0.4302    0.0000 N   0  0  0  0  0  0  0  0  0  0  0  0
    0.2377   -0.3948    0.0000 C   0  0  0  0  0  0  0  0  0  0  0  0
    0.9521   -0.8073    0.0000 C   0  0  0  0  0  0  0  0  0  0  0  0
   -0.4768   -1.6323    0.0000 C   0  0  0  0  0  0  0  0  0  0  0  0
    0.9521   -1.6323    0.0000 C   0  0  0  0  0  0  0  0  0  0  0  0
    0.2377   -2.0448    0.0000 C   0  0  0  0  0  0  0  0  0  0  0  0
    0.9521    0.8427    0.0000 C   0  0  0  0  0  0  0  0  0  0  0  0
  1  9  2  0
  2  4  1  0
  2  6  2  0
  3  4  1  0
  3  9  2  0
  4  5  2  0
  5  7  1  0
  6  8  1  0
  7  8  2  0
M  END

> <chembl_id>
CHEMBL1607857

> <chembl_pref_name>
None

$$$$

     RDKit          2D

  9  9  0  0  0  0  0  0  0  0999 V2000
   -3.9866   -3.7644    0.0000 C   0  0  0  0  0  0  0  0  0  0  0  0
   -3.9878   -4.5913    0.0000 C   0  0  0  0  0  0  0  0  0  0  0  0
   -3.2734   -5.0040    0.0000 C   0  0  0  0  0  0  0  0  0  0  0  0
   -2.5573   -4.5908    0.0000 C   0  0  0  0  0  0  0  0  0  0  0  0
   -2.5602   -3.7608    0.0000 C   0  0  0  0  0  0  0  0  0  0  0  0
   -3.2752   -3.3519    0.0000 C   0  0  0  0  0  0  0  0  0  0  0  0
   -3.2736   -5.8285    0.0000 C   0  0  0  0  0  0  0  0  0  0  0  0
   -3.9878   -6.2405    0.0000 N   0  0  0  0  0  0  0  0  0  0  0  0
   -3.2776   -2.5274    0.0000 O   0  0  0  0  0  0  0  0  0  0  0  0
  4  5  1  0
  2  3  1  0
  5  6  2  0
  6  1  1  0
  1  2  2  0
  3  7  1  0
  3  4  2  0
  7  8  1  0
  6  9  1  0
M  END

> <chembl_id>
CHEMBL202519

> <chembl_pref_name>
None

$$$$

     RDKit          2D

 10 10  0  0  0  0  0  0  0  0999 V2000
    4.9313   -4.3591    0.0000 C   0  0  0  0  0  0  0  0  0  0  0  0
    3.8933   -3.7570    0.0000 C   0  0  0  0  0  0  0  0  0  0  0  0
    2.5951   -3.0039    0.0000 C   0  0  0  0  0  0  0  0  0  0  0  0
    2.5973   -1.5031    0.0000 N   0  0  0  0  0  0  0  0  0  0  0  0
    1.2990   -0.7500    0.0000 C   0  0  0  0  0  0  0  0  0  0  0  0
    1.2990    0.7500    0.0000 N   0  0  0  0  0  0  0  0  0  0  0  0
    0.0000    1.5000    0.0000 C   0  0  0  0  0  0  0  0  0  0  0  0
   -1.2990    0.7500    0.0000 C   0  0  0  0  0  0  0  0  0  0  0  0
   -1.2990   -0.7500    0.0000 C   0  0  0  0  0  0  0  0  0  0  0  0
    0.0000   -1.5000    0.0000 N   0  0  0  0  0  0  0  0  0  0  0  0
  1  2  3  0
  2  3  1  0
  3  4  1  0
  4  5  1  0
  5  6  2  3
  6  7  1  0
  7  8  2  3
  8  9  1  0
  9 10  2  3
 10  5  1  0
M  END

> <chembl_id>
CHEMBL4556002

> <chembl_pref_name>
None

$$$$

     RDKit          2D

 10 11  0  0  0  0  0  0  0  0999 V2000
   -0.0976    2.0626    0.0000 C   0  0  0  0  0  0  0  0  0  0  0  0
   -0.0968    1.0626    0.0000 C   0  0  0  0  0  0  0  0  0  0  0  0
    0.7696    0.5632    0.0000 C   0  0  0  0  0  0  0  0  0  0  0  0
    0.7704   -0.4368    0.0000 C   0  0  0  0  0  0  0  0  0  0  0  0
   -0.0952   -0.9374    0.0000 N   0  0  0  0  0  0  0  0  0  0  0  0
   -0.9616   -0.4380    0.0000 C   0  0  0  0  0  0  0  0  0  0  0  0
   -0.9624    0.5620    0.0000 C   0  0  0  0  0  0  0  0  0  0  0  0
   -1.9136    0.8702    0.0000 C   0  0  0  0  0  0  0  0  0  0  0  0
   -2.5008    0.0606    0.0000 C   0  0  0  0  0  0  0  0  0  0  0  0
   -1.9124   -0.7478    0.0000 N   0  0  0  0  0  0  0  0  0  0  0  0
  1  2  1  0
  2  3  2  0
  3  4  1  0
  4  5  2  0
  5  6  1  0
  6  7  2  0
  7  8  1  0
  8  9  1  0
  9 10  1  0
  7  2  1  0
 10  6  1  0
M  END

> <chembl_id>
CHEMBL4514147

> <chembl_pref_name>
None

$$$$

     RDKit          2D

  8  8  0  0  0  0  0  0  0  0999 V2000
    3.9916   -3.1828    0.0000 C   0  0  0  0  0  0  0  0  0  0  0  0
    3.9905   -4.0079    0.0000 C   0  0  0  0  0  0  0  0  0  0  0  0
    4.7033   -4.4196    0.0000 N   0  0  0  0  0  0  0  0  0  0  0  0
    5.4178   -4.0074    0.0000 C   0  0  0  0  0  0  0  0  0  0  0  0
    5.4150   -3.1792    0.0000 C   0  0  0  0  0  0  0  0  0  0  0  0
    4.7016   -2.7712    0.0000 C   0  0  0  0  0  0  0  0  0  0  0  0
    6.1377   -4.4216    0.0000 O   0  0  0  0  0  0  0  0  0  0  0  0
    6.8564   -4.0051    0.0000 C   0  0  0  0  0  0  0  0  0  0  0  0
  1  2  2  0
  2  3  1  0
  3  4  2  0
  4  5  1  0
  5  6  2  0
  6  1  1  0
  4  7  1  0
  7  8  1  0
M  END

> <chembl_id>
CHEMBL3274300

> <chembl_pref_name>
None

$$$$

     RDKit          2D

 10 10  0  0  0  0  0  0  0  0999 V2000
    3.8292   -3.2625    0.0000 N   0  0  0  0  0  0  0  0  0  0  0  0
    2.4875   -3.2250    0.0000 N   0  0  0  0  0  0  0  0  0  0  0  0
    3.1375   -3.7375    0.0000 C   0  0  0  0  0  0  0  0  0  0  0  0
    3.6042   -2.4792    0.0000 C   0  0  0  0  0  0  0  0  0  0  0  0
    2.7792   -2.4417    0.0000 C   0  0  0  0  0  0  0  0  0  0  0  0
    4.1125   -1.8292    0.0000 C   0  0  0  0  0  0  0  0  0  0  0  0
    5.4417   -1.2875    0.0000 N   0  0  0  0  0  0  0  0  0  0  0  0
    1.6917   -3.4542    0.0000 C   0  0  0  0  0  0  0  0  0  0  0  0
    4.9292   -1.9417    0.0000 C   0  0  0  0  0  0  0  0  0  0  0  0
    1.0917   -2.8792    0.0000 C   0  0  0  0  0  0  0  0  0  0  0  0
  2  3  1  0
  3  1  2  0
  4  1  1  0
  5  4  2  0
  6  4  1  0
  7  9  1  0
  8  2  1  0
  9  6  1  0
 10  8  1  0
  2  5  1  0
M  END

> <chembl_id>
CHEMBL46296

> <chembl_pref_name>
None

$$$$

     RDKit          2D

  9  9  0  0  0  0  0  0  0  0999 V2000
    0.0000    0.0000    0.0000 N   0  0  0  0  0  0  0  0  0  0  0  0
    0.7148   -1.2381    0.0000 C   0  0  0  0  0  0  0  0  0  0  0  0
    0.7148   -0.4118    0.0000 C   0  0  0  0  0  0  0  0  0  0  0  0
    2.1445   -1.2381    0.0000 C   0  0  0  0  0  0  0  0  0  0  0  0
    1.4297   -1.6499    0.0000 C   0  0  0  0  0  0  0  0  0  0  0  0
    1.4297    0.0000    0.0000 C   0  0  0  0  0  0  0  0  0  0  0  0
    2.1445   -0.4118    0.0000 C   0  0  0  0  0  0  0  0  0  0  0  0
    0.0000   -1.6499    0.0000 C   0  0  0  0  0  0  0  0  0  0  0  0
    2.8594   -1.6499    0.0000 C   0  0  0  0  0  0  0  0  0  0  0  0
  1  3  1  0
  2  3  1  0
  2  5  2  0
  2  8  1  0
  3  6  2  0
  4  5  1  0
  4  7  2  0
  4  9  1  0
  6  7  1  0
M  END

> <chembl_id>
CHEMBL1490826

> <chembl_pref_name>
None

$$$$

     RDKit          2D

  7  7  0  0  0  0  0  0  0  0999 V2000
   11.2460  -17.1134    0.0000 N   0  0  0  0  0  0  0  0  0  0  0  0
   12.0556  -17.2533    0.0000 N   0  0  0  0  0  0  0  0  0  0  0  0
   12.4382  -16.5354    0.0000 C   0  0  0  0  0  0  0  0  0  0  0  0
   11.8643  -15.9353    0.0000 O   0  0  0  0  0  0  0  0  0  0  0  0
   11.1238  -16.3007    0.0000 C   0  0  0  0  0  0  0  0  0  0  0  0
   13.2648  -16.4360    0.0000 O   0  0  0  0  0  0  0  0  0  0  0  0
   10.4105  -15.8860    0.0000 C   0  0  0  0  0  0  0  0  0  0  0  0
  2  3  2  0
  3  4  1  0
  4  5  1  0
  5  1  2  0
  1  2  1  0
  3  6  1  0
  5  7  1  0
M  END

> <chembl_id>
CHEMBL504001

> <chembl_pref_name>
None

$$$$

     RDKit          2D

 10 10  0  0  0  0  0  0  0  0999 V2000
    8.1409   -8.4815    0.0000 O   0  0  0  0  0  0  0  0  0  0  0  0
    8.8120   -8.0166    0.0000 N   0  0  0  0  0  0  0  0  0  0  0  0
    8.5806   -7.2347    0.0000 C   0  0  0  0  0  0  0  0  0  0  0  0
    7.7620   -7.2128    0.0000 C   0  0  0  0  0  0  0  0  0  0  0  0
    7.4919   -7.9848    0.0000 C   0  0  0  0  0  0  0  0  0  0  0  0
    9.0772   -6.5857    0.0000 O   0  0  0  0  0  0  0  0  0  0  0  0
    6.7043   -8.2172    0.0000 C   0  0  0  0  0  0  0  0  0  0  0  0
    9.5307   -8.4055    0.0000 C   0  0  0  0  0  0  0  0  0  0  0  0
    9.5533   -9.2224    0.0000 C   0  0  0  0  0  0  0  0  0  0  0  0
   10.2268   -7.9775    0.0000 O   0  0  0  0  0  0  0  0  0  0  0  0
  1  2  1  0
  2  3  1  0
  3  4  1  0
  4  5  2  0
  1  5  1  0
  3  6  2  0
  5  7  1  0
  2  8  1  0
  8  9  1  0
  8 10  2  0
M  END

> <chembl_id>
CHEMBL2270263

> <chembl_pref_name>
None

$$$$

     RDKit          2D

 10 10  0  0  0  0  0  0  0  0999 V2000
   -1.0307    0.4248    0.0000 N   0  0  0  0  0  0  0  0  0  0  0  0
   -0.3163    0.8373    0.0000 C   0  0  0  0  0  0  0  0  0  0  0  0
    0.3982    0.4248    0.0000 C   0  0  0  0  0  0  0  0  0  0  0  0
    0.3982   -0.4002    0.0000 C   0  0  0  0  0  0  0  0  0  0  0  0
    1.0656   -0.8851    0.0000 N   0  0  0  0  0  0  0  0  0  0  0  0
   -0.2692   -0.8851    0.0000 C   0  0  0  0  0  0  0  0  0  0  0  0
    0.8107   -1.6697    0.0000 C   0  0  0  0  0  0  0  0  0  0  0  0
   -0.0143   -1.6697    0.0000 N   0  0  0  0  0  0  0  0  0  0  0  0
   -0.3163    1.6623    0.0000 C   0  0  0  0  0  0  0  0  0  0  0  0
   -1.0307    2.0748    0.0000 O   0  0  0  0  0  0  0  0  0  0  0  0
  2  1  1  6
  2  3  1  0
  9  2  1  0
  3  4  1  0
  4  5  1  0
  6  4  2  0
  7  5  2  0
  6  8  1  0
  7  8  1  0
  9 10  2  0
M  END

> <chembl_id>
CHEMBL307302

> <chembl_pref_name>
L-HISTIDINAL

$$$$

     RDKit          2D

 11 12  0  0  0  0  0  0  0  0999 V2000
   -0.0708    0.2625    0.0000 C   0  0  0  0  0  0  0  0  0  0  0  0
    0.6417    0.6833    0.0000 C   0  0  0  0  0  0  0  0  0  0  0  0
   -0.0708   -0.5542    0.0000 C   0  0  0  0  0  0  0  0  0  0  0  0
    0.6417    1.5083    0.0000 O   0  0  0  0  0  0  0  0  0  0  0  0
    1.3542    0.2625    0.0000 C   0  0  0  0  0  0  0  0  0  0  0  0
    1.3542   -0.5542    0.0000 C   0  0  0  0  0  0  0  0  0  0  0  0
   -0.7833    0.6833    0.0000 C   0  0  0  0  0  0  0  0  0  0  0  0
    0.6417   -0.9750    0.0000 C   0  0  0  0  0  0  0  0  0  0  0  0
   -0.7833   -0.9750    0.0000 C   0  0  0  0  0  0  0  0  0  0  0  0
   -1.4958    0.2625    0.0000 C   0  0  0  0  0  0  0  0  0  0  0  0
   -1.4958   -0.5542    0.0000 C   0  0  0  0  0  0  0  0  0  0  0  0
  2  1  1  0
  3  1  1  0
  4  2  2  0
  5  2  1  0
  6  8  1  0
  7  1  2  0
  8  3  1  0
  9  3  2  0
 10  7  1  0
 11 10  2  0
 11  9  1  0
  6  5  1  0
M  END

> <chembl_id>
CHEMBL193373

> <chembl_pref_name>
None

$$$$

     RDKit          2D

  9  9  0  0  0  0  0  0  0  0999 V2000
    1.2990   -0.7500    0.0000 N   0  0  0  0  0  0  0  0  0  0  0  0
    1.2990    0.7500    0.0000 C   0  0  0  0  0  0  0  0  0  0  0  0
    0.0000    1.5000    0.0000 N   0  0  0  0  0  0  0  0  0  0  0  0
   -1.2990    0.7500    0.0000 C   0  0  0  0  0  0  0  0  0  0  0  0
   -1.2990   -0.7500    0.0000 C   0  0  0  0  0  0  0  0  0  0  0  0
    0.0000   -1.5000    0.0000 C   0  0  0  0  0  0  0  0  0  0  0  0
    2.3383    1.3500    0.0000 O   0  0  0  0  0  0  0  0  0  0  0  0
   -2.3383    1.3500    0.0000 O   0  0  0  0  0  0  0  0  0  0  0  0
   -2.3383   -1.3500    0.0000 F   0  0  0  0  0  0  0  0  0  0  0  0
  2  1  1  0
  6  1  1  0
  2  3  1  0
  2  7  2  0
  4  3  1  0
  4  5  1  0
  4  8  2  0
  5  6  2  0
  5  9  1  0
M  END

> <chembl_id>
CHEMBL185

> <chembl_pref_name>
FLUOROURACIL

$$$$

     RDKit          2D

 10 10  0  0  0  0  0  0  0  0999 V2000
   15.2483  -10.0039    0.0000 C   0  0  0  0  0  0  0  0  0  0  0  0
   15.2483  -10.8289    0.0000 C   0  0  0  0  0  0  0  0  0  0  0  0
   15.9568  -11.2352    0.0000 N   0  0  0  0  0  0  0  0  0  0  0  0
   16.6694  -10.8289    0.0000 C   0  0  0  0  0  0  0  0  0  0  0  0
   16.6694  -10.0039    0.0000 C   0  0  0  0  0  0  0  0  0  0  0  0
   15.9568   -9.5852    0.0000 C   0  0  0  0  0  0  0  0  0  0  0  0
   15.9568   -8.7601    0.0000 O   0  0  0  0  0  0  0  0  0  0  0  0
   14.5321   -9.5914    0.0000 O   0  0  0  0  0  0  0  0  0  0  0  0
   17.3839  -11.2403    0.0000 C   0  0  0  0  0  0  0  0  0  0  0  0
   18.0942  -10.8292    0.0000 N   0  0  0  0  0  0  0  0  0  0  0  0
  1  2  2  0
  1  6  1  0
  2  3  1  0
  3  4  1  0
  4  5  2  0
  5  6  1  0
  6  7  2  0
  1  8  1  0
  4  9  1  0
  9 10  1  0
M  END

> <chembl_id>
CHEMBL3246282

> <chembl_pref_name>
None

$$$$

     RDKit          2D

  9  9  0  0  0  0  0  0  0  0999 V2000
    3.4542   -7.0500    0.0000 N   0  0  0  0  0  0  0  0  0  0  0  0
    2.7417   -6.6375    0.0000 C   0  0  0  0  0  0  0  0  0  0  0  0
    2.7417   -5.8125    0.0000 C   0  0  0  0  0  0  0  0  0  0  0  0
    4.1750   -6.6375    0.0000 C   0  0  0  0  0  0  0  0  0  0  0  0
    4.1750   -5.8042    0.0000 C   0  0  0  0  0  0  0  0  0  0  0  0
    3.4542   -5.3917    0.0000 C   0  0  0  0  0  0  0  0  0  0  0  0
    4.8917   -7.0500    0.0000 O   0  0  0  0  0  0  0  0  0  0  0  0
    2.0292   -7.0500    0.0000 F   0  0  0  0  0  0  0  0  0  0  0  0
    3.4542   -4.5667    0.0000 N   0  0  0  0  0  0  0  0  0  0  0  0
  2  1  2  0
  3  2  1  0
  4  1  1  0
  5  4  2  0
  6  5  1  0
  7  4  1  0
  8  2  1  0
  9  6  1  0
  6  3  2  0
M  END

> <chembl_id>
CHEMBL116460

> <chembl_pref_name>
None

$$$$

     RDKit          2D

 10 10  0  0  0  0  0  0  0  0999 V2000
   -1.0958    0.2000    0.0000 N   0  0  0  0  0  0  0  0  0  0  0  0
   -0.1208    0.2000    0.0000 N   0  0  0  0  0  0  0  0  0  0  0  0
   -0.3083   -0.3750    0.0000 N   0  0  0  0  0  0  0  0  0  0  0  0
   -0.6083    0.5500    0.0000 C   0  0  0  0  0  0  0  0  0  0  0  0
   -0.9083   -0.3750    0.0000 C   0  0  0  0  0  0  0  0  0  0  0  0
   -1.6625    0.3875    0.0000 N   0  0  0  0  0  0  0  0  0  0  0  0
   -0.6083    1.1500    0.0000 C   0  0  0  0  0  0  0  0  0  0  0  0
   -1.2583   -0.8542    0.0000 C   0  0  0  0  0  0  0  0  0  0  0  0
   -0.0875    1.4500    0.0000 C   0  0  0  0  0  0  0  0  0  0  0  0
   -1.0208   -1.4042    0.0000 C   0  0  0  0  0  0  0  0  0  0  0  0
  2  4  2  0
  3  5  2  0
  4  1  1  0
  5  1  1  0
  6  1  1  0
  7  4  1  0
  8  5  1  0
  9  7  1  0
 10  8  1  0
  3  2  1  0
M  END

> <chembl_id>
CHEMBL113124

> <chembl_pref_name>
None

$$$$

     RDKit          2D

  7  7  0  0  0  0  0  0  0  0999 V2000
    0.0018    1.4143    0.0000 C   0  0  0  0  0  0  0  0  0  0  0  0
    0.0018    0.5893    0.0000 C   0  0  0  0  0  0  0  0  0  0  0  0
    0.7162    0.1768    0.0000 C   0  0  0  0  0  0  0  0  0  0  0  0
   -0.7127    0.1768    0.0000 C   0  0  0  0  0  0  0  0  0  0  0  0
    0.7162   -0.6482    0.0000 C   0  0  0  0  0  0  0  0  0  0  0  0
    0.0018   -1.0607    0.0000 C   0  0  0  0  0  0  0  0  0  0  0  0
   -0.7127   -0.6482    0.0000 N   0  0  0  0  0  0  0  0  0  0  0  0
  1  2  1  0
  3  2  2  0
  4  2  1  0
  3  5  1  0
  4  7  2  0
  5  6  2  0
  6  7  1  0
M  END

> <chembl_id>
CHEMBL15722

> <chembl_pref_name>
3-METHYLPYRIDINE

$$$$

     RDKit          2D

 11 11  0  0  0  0  0  0  0  0999 V2000
    3.0652  -12.6166    0.0000 C   0  0  0  0  0  0  0  0  0  0  0  0
    3.0641  -13.4440    0.0000 C   0  0  0  0  0  0  0  0  0  0  0  0
    3.7789  -13.8569    0.0000 N   0  0  0  0  0  0  0  0  0  0  0  0
    4.4953  -13.4436    0.0000 C   0  0  0  0  0  0  0  0  0  0  0  0
    4.4925  -12.6130    0.0000 C   0  0  0  0  0  0  0  0  0  0  0  0
    3.7771  -12.2038    0.0000 C   0  0  0  0  0  0  0  0  0  0  0  0
    5.2104  -13.8549    0.0000 O   0  0  0  0  0  0  0  0  0  0  0  0
    3.7787  -14.6818    0.0000 C   0  0  0  0  0  0  0  0  0  0  0  0
    5.9243  -13.4413    0.0000 C   0  0  0  0  0  0  0  0  0  0  0  0
    2.3495  -13.8580    0.0000 C   0  0  0  0  0  0  0  0  0  0  0  0
    1.6348  -14.2699    0.0000 N   0  0  0  0  0  0  0  0  0  0  0  0
  1  2  2  0
  2  3  1  0
  3  4  2  0
  4  5  1  0
  5  6  2  0
  6  1  1  0
  4  7  1  0
  3  8  1  0
  7  9  1  0
 10 11  3  0
  2 10  1  0
M  CHG  1   3   1
M  END

> <chembl_id>
CHEMBL3558909

> <chembl_pref_name>
None

$$$$

     RDKit          2D

 10 10  0  0  0  0  0  0  0  0999 V2000
    1.8792   -0.6792    0.0000 C   0  0  0  0  0  0  0  0  0  0  0  0
    2.7042   -0.6792    0.0000 C   0  0  0  0  0  0  0  0  0  0  0  0
    1.4667   -1.4000    0.0000 O   0  0  0  0  0  0  0  0  0  0  0  0
    1.4667    0.0333    0.0000 O   0  0  0  0  0  0  0  0  0  0  0  0
    3.1167    0.0333    0.0000 C   0  0  0  0  0  0  0  0  0  0  0  0
    3.1167   -1.4000    0.0000 C   0  0  0  0  0  0  0  0  0  0  0  0
    4.3542   -0.6792    0.0000 C   0  0  0  0  0  0  0  0  0  0  0  0
    5.1792   -0.6792    0.0000 N   0  0  0  0  0  0  0  0  0  0  0  0
    3.9417    0.0333    0.0000 C   0  0  0  0  0  0  0  0  0  0  0  0
    3.9417   -1.4000    0.0000 C   0  0  0  0  0  0  0  0  0  0  0  0
  2  1  1  0
  3  1  1  0
  4  1  2  0
  5  2  1  0
  6  2  2  0
  7 10  2  0
  8  7  1  0
  9  5  2  0
 10  6  1  0
  9  7  1  0
M  END

> <chembl_id>
CHEMBL542

> <chembl_pref_name>
AMINOBENZOIC ACID

$$$$

     RDKit          2D

  7  7  0  0  0  0  0  0  0  0999 V2000
   12.7551   -8.4601    0.0000 S   0  0  0  0  0  0  0  0  0  0  0  0
   11.9705   -8.2052    0.0000 N   0  0  0  0  0  0  0  0  0  0  0  0
   11.9705   -7.3802    0.0000 C   0  0  0  0  0  0  0  0  0  0  0  0
   12.7551   -7.1253    0.0000 C   0  0  0  0  0  0  0  0  0  0  0  0
   13.2400   -7.7927    0.0000 C   0  0  0  0  0  0  0  0  0  0  0  0
   11.3031   -8.6901    0.0000 C   0  0  0  0  0  0  0  0  0  0  0  0
   14.0545   -7.9241    0.0000 N   0  0  0  0  0  0  0  0  0  0  0  0
  1  2  1  0
  2  3  1  0
  3  4  2  0
  4  5  1  0
  1  5  1  0
  2  6  1  0
  5  7  2  0
M  END

> <chembl_id>
CHEMBL3303894

> <chembl_pref_name>
None

$$$$

     RDKit          2D

 10 10  0  0  0  0  0  0  0  0999 V2000
    9.7327  -13.2191    0.0000 N   0  0  0  0  0  0  0  0  0  0  0  0
   10.4412  -12.8075    0.0000 C   0  0  0  0  0  0  0  0  0  0  0  0
    9.7317  -14.0461    0.0000 C   0  0  0  0  0  0  0  0  0  0  0  0
    9.0158  -12.8099    0.0000 C   0  0  0  0  0  0  0  0  0  0  0  0
    9.0163  -11.9829    0.0000 C   0  0  0  0  0  0  0  0  0  0  0  0
    9.7291  -11.5676    0.0000 C   0  0  0  0  0  0  0  0  0  0  0  0
   10.4403  -11.9794    0.0000 C   0  0  0  0  0  0  0  0  0  0  0  0
    9.7280  -10.7440    0.0000 N   0  0  0  0  0  0  0  0  0  0  0  0
    9.0180  -14.4570    0.0000 C   0  0  0  0  0  0  0  0  0  0  0  0
    8.3060  -14.8704    0.0000 N   0  0  0  0  0  0  0  0  0  0  0  0
  1  2  1  0
  1  3  1  0
  1  4  1  0
  4  5  2  0
  5  6  1  0
  6  7  1  0
  7  2  2  0
  6  8  2  0
  3  9  1  0
  9 10  3  0
M  END

> <chembl_id>
CHEMBL3303836

> <chembl_pref_name>
None

$$$$

     RDKit          2D

 11 11  0  0  0  0  0  0  0  0999 V2000
   -6.2759    1.8857    0.0000 C   0  0  0  0  0  0  0  0  0  0  0  0
   -6.9904    1.4732    0.0000 C   0  0  0  0  0  0  0  0  0  0  0  0
   -6.9904    0.6482    0.0000 C   0  0  0  0  0  0  0  0  0  0  0  0
   -6.2759    0.2357    0.0000 C   0  0  0  0  0  0  0  0  0  0  0  0
   -5.5614    0.6482    0.0000 C   0  0  0  0  0  0  0  0  0  0  0  0
   -5.5614    1.4732    0.0000 C   0  0  0  0  0  0  0  0  0  0  0  0
   -4.8469    1.8857    0.0000 C   0  0  0  0  0  0  0  0  0  0  0  0
   -4.1325    1.4732    0.0000 C   0  0  0  0  0  0  0  0  0  0  0  0
   -3.4180    1.8857    0.0000 C   0  0  0  0  0  0  0  0  0  0  0  0
   -2.7035    1.4732    0.0000 C   0  0  0  0  0  0  0  0  0  0  0  0
   -1.9890    1.0607    0.0000 C   0  0  0  0  0  0  0  0  0  0  0  0
  1  2  1  0
  1  6  2  0
  2  3  2  0
  3  4  1  0
  4  5  2  0
  5  6  1  0
  6  7  1  0
  7  8  1  0
  8  9  1  0
  9 10  1  0
 10 11  3  0
M  END

> <chembl_id>
CHEMBL1743362

> <chembl_pref_name>
None

$$$$

     RDKit          2D

 10 10  0  0  0  0  0  0  0  0999 V2000
   11.6378  -11.2741    0.0000 O   0  0  0  0  0  0  0  0  0  0  0  0
   10.8538  -11.0215    0.0000 N   0  0  0  0  0  0  0  0  0  0  0  0
   10.8538  -10.1972    0.0000 C   0  0  0  0  0  0  0  0  0  0  0  0
   11.6378   -9.9404    0.0000 C   0  0  0  0  0  0  0  0  0  0  0  0
   12.1221  -10.6094    0.0000 C   0  0  0  0  0  0  0  0  0  0  0  0
   12.9463  -10.6094    0.0000 C   0  0  0  0  0  0  0  0  0  0  0  0
   13.3584  -11.3203    0.0000 O   0  0  0  0  0  0  0  0  0  0  0  0
   13.3584   -9.8942    0.0000 N   0  0  0  0  0  0  0  0  0  0  0  0
   12.9463   -9.1790    0.0000 O   0  0  0  0  0  0  0  0  0  0  0  0
   10.1891   -9.7088    0.0000 O   0  0  0  0  0  0  0  0  0  0  0  0
  1  2  1  0
  2  3  2  0
  3  4  1  0
  4  5  2  0
  1  5  1  0
  5  6  1  0
  6  7  2  0
  8  9  1  0
  6  8  1  0
  3 10  1  0
M  END

> <chembl_id>
CHEMBL3247680

> <chembl_pref_name>
None

$$$$

     RDKit          2D

  8  8  0  0  0  0  0  0  0  0999 V2000
    2.6792   -2.9917    0.0000 S   0  0  0  0  0  0  0  0  0  0  0  0
    3.3042   -2.6375    0.0000 C   0  0  0  0  0  0  0  0  0  0  0  0
    2.0667   -2.6375    0.0000 C   0  0  0  0  0  0  0  0  0  0  0  0
    2.0667   -1.9167    0.0000 N   0  0  0  0  0  0  0  0  0  0  0  0
    3.3042   -1.9167    0.0000 N   0  0  0  0  0  0  0  0  0  0  0  0
    3.9292   -2.9917    0.0000 S   0  0  0  0  0  0  0  0  0  0  0  0
    1.4417   -2.9917    0.0000 N   0  0  0  0  0  0  0  0  0  0  0  0
    3.9292   -3.7167    0.0000 C   0  0  0  0  0  0  0  0  0  0  0  0
  2  1  1  0
  3  1  1  0
  4  3  2  0
  5  2  2  0
  6  2  1  0
  7  3  1  0
  8  6  1  0
  5  4  1  0
M  END

> <chembl_id>
CHEMBL174202

> <chembl_pref_name>
None

$$$$

     RDKit          2D

 10 10  0  0  1  0  0  0  0  0999 V2000
    5.6292   -6.7917    0.0000 N   0  0  0  0  0  0  0  0  0  0  0  0
    5.7000   -5.9667    0.0000 C   0  0  0  0  0  0  0  0  0  0  0  0
    4.3917   -6.2667    0.0000 N   0  0  0  0  0  0  0  0  0  0  0  0
    4.8250   -6.9792    0.0000 C   0  0  0  0  0  0  0  0  0  0  0  0
    4.9375   -5.6417    0.0000 C   0  0  0  0  0  0  0  0  0  0  0  0
    6.4042   -5.5375    0.0000 C   0  0  0  0  0  0  0  0  0  0  0  0
    7.1417   -6.7625    0.0000 N   0  0  0  0  0  0  0  0  0  0  0  0
    7.1292   -5.9375    0.0000 C   0  0  0  0  0  0  0  0  0  0  0  0
    8.5542   -5.9042    0.0000 O   0  0  0  0  0  0  0  0  0  0  0  0
    7.8375   -5.5125    0.0000 C   0  0  0  0  0  0  0  0  0  0  0  0
  2  1  1  0
  3  4  1  0
  4  1  2  0
  5  2  2  0
  6  2  1  0
  8  7  1  6
  8  6  1  0
  9 10  1  0
 10  8  1  0
  3  5  1  0
M  END

> <chembl_id>
CHEMBL19588

> <chembl_pref_name>
None

$$$$

     RDKit          2D

 10 10  0  0  0  0  0  0  0  0999 V2000
   -0.6625    0.5898    0.0000 O   0  0  0  0  0  0  0  0  0  0  0  0
    1.3736   -1.2567    0.0000 N   0  0  0  0  0  0  0  0  0  0  0  0
    0.2936   -0.4721    0.0000 C   0  0  0  0  0  0  0  0  0  0  0  0
    0.5486   -1.2567    0.0000 C   0  0  0  0  0  0  0  0  0  0  0  0
    0.9611    0.0128    0.0000 C   0  0  0  0  0  0  0  0  0  0  0  0
   -0.4910   -0.2172    0.0000 C   0  0  0  0  0  0  0  0  0  0  0  0
    1.6285   -0.4721    0.0000 C   0  0  0  0  0  0  0  0  0  0  0  0
    0.0637   -1.9242    0.0000 C   0  0  0  0  0  0  0  0  0  0  0  0
    0.9611    0.8378    0.0000 C   0  0  0  0  0  0  0  0  0  0  0  0
   -1.1041   -0.7692    0.0000 C   0  0  0  0  0  0  0  0  0  0  0  0
  1  6  2  0
  2  4  1  0
  2  7  1  0
  3  4  2  0
  3  5  1  0
  3  6  1  0
  4  8  1  0
  5  7  2  0
  5  9  1  0
  6 10  1  0
M  END

> <chembl_id>
CHEMBL1725066

> <chembl_pref_name>
None

$$$$

     RDKit          2D

  8  8  0  0  0  0  0  0  0  0999 V2000
   -0.8461   -4.1974    0.0000 N   0  0  0  0  0  0  0  0  0  0  0  0
    0.2339   -4.9820    0.0000 N   0  0  0  0  0  0  0  0  0  0  0  0
    0.5359   -1.6500    0.0000 N   0  0  0  0  0  0  0  0  0  0  0  0
   -0.1786   -3.7125    0.0000 C   0  0  0  0  0  0  0  0  0  0  0  0
    0.4888   -4.1974    0.0000 C   0  0  0  0  0  0  0  0  0  0  0  0
   -0.5911   -4.9820    0.0000 C   0  0  0  0  0  0  0  0  0  0  0  0
   -0.1786   -2.8875    0.0000 C   0  0  0  0  0  0  0  0  0  0  0  0
    0.5359   -2.4750    0.0000 C   0  0  0  0  0  0  0  0  0  0  0  0
  1  4  1  0
  1  6  2  0
  2  5  1  0
  2  6  1  0
  3  8  1  0
  4  5  2  0
  4  7  1  0
  7  8  1  0
M  END

> <chembl_id>
CHEMBL90

> <chembl_pref_name>
HISTAMINE

$$$$

     RDKit          2D

  9  9  0  0  0  0  0  0  0  0999 V2000
   25.1582   -9.2119    0.0000 C   0  0  0  0  0  0  0  0  0  0  0  0
   25.1570  -10.0315    0.0000 C   0  0  0  0  0  0  0  0  0  0  0  0
   25.8651  -10.4404    0.0000 C   0  0  0  0  0  0  0  0  0  0  0  0
   26.5747  -10.0310    0.0000 C   0  0  0  0  0  0  0  0  0  0  0  0
   26.5719   -9.2083    0.0000 C   0  0  0  0  0  0  0  0  0  0  0  0
   25.8633   -8.8031    0.0000 C   0  0  0  0  0  0  0  0  0  0  0  0
   25.8608   -7.9859    0.0000 C   0  0  0  0  0  0  0  0  0  0  0  0
   26.5673   -7.5752    0.0000 O   0  0  0  0  0  0  0  0  0  0  0  0
   27.2781   -8.7971    0.0000 F   0  0  0  0  0  0  0  0  0  0  0  0
  1  2  2  0
  2  3  1  0
  3  4  2  0
  4  5  1  0
  5  6  2  0
  6  1  1  0
  6  7  1  0
  7  8  2  0
  5  9  1  0
M  END

> <chembl_id>
CHEMBL4084647

> <chembl_pref_name>
None

$$$$

     RDKit          2D

  9  9  0  0  0  0  0  0  0  0999 V2000
    0.6511   -0.2292    0.0000 C   0  0  0  0  0  0  0  0  0  0  0  0
    0.6511   -1.0542    0.0000 C   0  0  0  0  0  0  0  0  0  0  0  0
   -0.0634   -1.4667    0.0000 C   0  0  0  0  0  0  0  0  0  0  0  0
   -0.7779   -1.0542    0.0000 C   0  0  0  0  0  0  0  0  0  0  0  0
   -0.7779   -0.2292    0.0000 C   0  0  0  0  0  0  0  0  0  0  0  0
   -0.0634    0.1833    0.0000 C   0  0  0  0  0  0  0  0  0  0  0  0
   -0.0634    1.0083    0.0000 N   0  0  0  0  0  0  0  0  0  0  0  0
   -0.7779    1.4208    0.0000 O   0  0  0  0  0  0  0  0  0  0  0  0
    0.6511    1.4208    0.0000 O   0  0  0  0  0  0  0  0  0  0  0  0
  1  2  2  0
  1  6  1  0
  2  3  1  0
  3  4  2  0
  4  5  1  0
  5  6  2  0
  6  7  1  0
  7  8  1  0
  7  9  2  0
M  CHG  2   7   1   8  -1
M  END

> <chembl_id>
CHEMBL15750

> <chembl_pref_name>
NITROBENZENE

$$$$

     RDKit          2D

 10 10  0  0  0  0  0  0  0  0999 V2000
    0.0000    1.0317    0.0000 C   0  0  0  0  0  0  0  0  0  0  0  0
   -0.0012    0.2049    0.0000 C   0  0  0  0  0  0  0  0  0  0  0  0
    0.7132   -0.2077    0.0000 C   0  0  0  0  0  0  0  0  0  0  0  0
    1.4292    0.2054    0.0000 C   0  0  0  0  0  0  0  0  0  0  0  0
    1.4263    1.0353    0.0000 C   0  0  0  0  0  0  0  0  0  0  0  0
    0.7114    1.4443    0.0000 C   0  0  0  0  0  0  0  0  0  0  0  0
    0.7130   -1.0321    0.0000 O   0  0  0  0  0  0  0  0  0  0  0  0
   -0.0011   -1.4443    0.0000 C   0  0  0  0  0  0  0  0  0  0  0  0
   -0.7155   -0.2068    0.0000 O   0  0  0  0  0  0  0  0  0  0  0  0
   -1.4292    0.2061    0.0000 C   0  0  0  0  0  0  0  0  0  0  0  0
  1  2  2  0
  2  3  1  0
  3  4  2  0
  4  5  1  0
  5  6  2  0
  6  1  1  0
  3  7  1  0
  7  8  1  0
  2  9  1  0
  9 10  1  0
M  END

> <chembl_id>
CHEMBL1668603

> <chembl_pref_name>
1,2-DIMETHOXYBENZENE

$$$$

     RDKit          2D

  9  9  0  0  0  0  0  0  0  0999 V2000
    5.5625   -0.3667    0.0000 C   0  0  0  0  0  0  0  0  0  0  0  0
    4.8417    0.0458    0.0000 C   0  0  0  0  0  0  0  0  0  0  0  0
    4.8417    0.8708    0.0000 S   0  0  0  0  0  0  0  0  0  0  0  0
    5.5625   -1.2000    0.0000 C   0  0  0  0  0  0  0  0  0  0  0  0
    6.2792   -1.6125    0.0000 O   0  0  0  0  0  0  0  0  0  0  0  0
    4.1292   -1.2000    0.0000 C   0  0  0  0  0  0  0  0  0  0  0  0
    4.1292   -0.3750    0.0000 C   0  0  0  0  0  0  0  0  0  0  0  0
    4.8417   -1.6125    0.0000 C   0  0  0  0  0  0  0  0  0  0  0  0
    6.2792   -2.4375    0.0000 C   0  0  0  0  0  0  0  0  0  0  0  0
  2  1  2  0
  3  2  1  0
  4  1  1  0
  5  4  1  0
  6  8  1  0
  7  2  1  0
  8  4  2  0
  9  5  1  0
  7  6  2  0
M  END

> <chembl_id>
CHEMBL122066

> <chembl_pref_name>
None

$$$$

     RDKit          2D

 10 10  0  0  0  0  0  0  0  0999 V2000
    4.5125   -2.1792    0.0000 C   0  0  0  0  0  0  0  0  0  0  0  0
    5.2292   -1.7542    0.0000 C   0  0  0  0  0  0  0  0  0  0  0  0
    5.9667   -2.9917    0.0000 N   0  0  0  0  0  0  0  0  0  0  0  0
    5.9542   -2.1667    0.0000 C   0  0  0  0  0  0  0  0  0  0  0  0
    4.5125   -3.0125    0.0000 C   0  0  0  0  0  0  0  0  0  0  0  0
    3.8000   -1.7667    0.0000 C   0  0  0  0  0  0  0  0  0  0  0  0
    5.2167   -0.9292    0.0000 C   0  0  0  0  0  0  0  0  0  0  0  0
    3.8000   -3.4250    0.0000 C   0  0  0  0  0  0  0  0  0  0  0  0
    3.0792   -2.1792    0.0000 C   0  0  0  0  0  0  0  0  0  0  0  0
    3.0792   -3.0125    0.0000 C   0  0  0  0  0  0  0  0  0  0  0  0
  2  1  1  0
  3  4  1  0
  4  2  1  0
  5  1  1  0
  6  1  2  0
  7  2  1  0
  8  5  2  0
  9  6  1  0
 10  9  2  0
 10  8  1  0
M  END

> <chembl_id>
CHEMBL158578

> <chembl_pref_name>
None

$$$$

     RDKit          2D

 11 12  0  0  0  0  0  0  0  0999 V2000
    5.2727  -18.1761    0.0000 C   0  0  0  0  0  0  0  0  0  0  0  0
    5.9351  -17.6858    0.0000 N   0  0  0  0  0  0  0  0  0  0  0  0
    5.6753  -16.9037    0.0000 C   0  0  0  0  0  0  0  0  0  0  0  0
    4.8487  -16.9106    0.0000 C   0  0  0  0  0  0  0  0  0  0  0  0
    4.6040  -17.6965    0.0000 N   0  0  0  0  0  0  0  0  0  0  0  0
    5.2778  -18.9976    0.0000 C   0  0  0  0  0  0  0  0  0  0  0  0
    4.5655  -19.4143    0.0000 C   0  0  0  0  0  0  0  0  0  0  0  0
    4.5713  -20.2376    0.0000 C   0  0  0  0  0  0  0  0  0  0  0  0
    5.2886  -20.6452    0.0000 C   0  0  0  0  0  0  0  0  0  0  0  0
    6.0016  -20.2233    0.0000 C   0  0  0  0  0  0  0  0  0  0  0  0
    5.9923  -19.4014    0.0000 N   0  0  0  0  0  0  0  0  0  0  0  0
  1  2  2  0
  6  7  2  0
  2  3  1  0
  7  8  1  0
  3  4  1  0
  8  9  2  0
  4  5  1  0
  9 10  1  0
  5  1  1  0
 10 11  2  0
 11  6  1  0
  1  6  1  0
M  END

> <chembl_id>
CHEMBL13862

> <chembl_pref_name>
None

$$$$

     RDKit          2D

  8  8  0  0  0  0  0  0  0  0999 V2000
    0.6167   -0.3000    0.0000 C   0  0  0  0  0  0  0  0  0  0  0  0
    0.1292   -0.6500    0.0000 N   0  0  0  0  0  0  0  0  0  0  0  0
    1.1042   -0.6500    0.0000 N   0  0  0  0  0  0  0  0  0  0  0  0
    0.3167   -1.2250    0.0000 C   0  0  0  0  0  0  0  0  0  0  0  0
    0.9167   -1.2250    0.0000 C   0  0  0  0  0  0  0  0  0  0  0  0
    0.6167    0.3000    0.0000 O   0  0  0  0  0  0  0  0  0  0  0  0
   -0.4375   -0.4667    0.0000 C   0  0  0  0  0  0  0  0  0  0  0  0
    1.2667   -1.7042    0.0000 C   0  0  0  0  0  0  0  0  0  0  0  0
  2  1  1  0
  3  1  2  0
  4  2  1  0
  5  3  1  0
  6  1  1  0
  7  2  1  0
  8  5  1  0
  5  4  2  0
M  END

> <chembl_id>
CHEMBL347001

> <chembl_pref_name>
None

$$$$

     RDKit          2D

 11 12  0  0  0  0  0  0  0  0999 V2000
    5.0292    0.7958    0.0000 N   0  0  0  0  0  0  0  0  0  0  0  0
    3.0167    0.0958    0.0000 C   0  0  0  0  0  0  0  0  0  0  0  0
    3.7292    0.5125    0.0000 C   0  0  0  0  0  0  0  0  0  0  0  0
    4.4792    0.1833    0.0000 C   0  0  0  0  0  0  0  0  0  0  0  0
    4.6167    1.5083    0.0000 C   0  0  0  0  0  0  0  0  0  0  0  0
    3.0167   -0.7292    0.0000 C   0  0  0  0  0  0  0  0  0  0  0  0
    2.3042    0.5083    0.0000 C   0  0  0  0  0  0  0  0  0  0  0  0
    3.8125    1.3333    0.0000 C   0  0  0  0  0  0  0  0  0  0  0  0
    1.5917    0.0958    0.0000 C   0  0  0  0  0  0  0  0  0  0  0  0
    2.3042   -1.1417    0.0000 C   0  0  0  0  0  0  0  0  0  0  0  0
    1.5917   -0.7292    0.0000 C   0  0  0  0  0  0  0  0  0  0  0  0
  2  3  1  0
  3  4  1  0
  4  1  1  0
  5  1  1  0
  6  2  1  0
  7  2  2  0
  8  5  1  0
  9  7  1  0
 10  6  2  0
 11  9  2  0
  8  3  1  0
 11 10  1  0
M  END

> <chembl_id>
CHEMBL75207

> <chembl_pref_name>
None

$$$$

     RDKit          2D

  8  8  0  0  0  0  0  0  0  0999 V2000
    1.1042   -1.1500    0.0000 C   0  0  0  0  0  0  0  0  0  0  0  0
    0.3917   -0.7292    0.0000 C   0  0  0  0  0  0  0  0  0  0  0  0
    0.3917   -2.3792    0.0000 N   0  0  0  0  0  0  0  0  0  0  0  0
   -0.3125   -1.1500    0.0000 C   0  0  0  0  0  0  0  0  0  0  0  0
    1.1042   -1.9750    0.0000 C   0  0  0  0  0  0  0  0  0  0  0  0
   -0.3125   -1.9750    0.0000 C   0  0  0  0  0  0  0  0  0  0  0  0
    0.3917    0.0958    0.0000 O   0  0  0  0  0  0  0  0  0  0  0  0
    1.8250   -0.7375    0.0000 O   0  0  0  0  0  0  0  0  0  0  0  0
  2  1  1  0
  3  5  1  0
  4  2  1  0
  5  1  2  0
  6  3  1  0
  7  2  2  0
  8  1  1  0
  6  4  2  0
M  END

> <chembl_id>
CHEMBL310900

> <chembl_pref_name>
None

$$$$

     RDKit          2D

  9  9  0  0  0  0  0  0  0  0999 V2000
    3.0735   -1.2750    0.0000 O   0  0  0  0  0  0  0  0  0  0  0  0
    3.7415   -0.7810    0.0000 N   0  0  0  0  0  0  0  0  0  0  0  0
    3.4763    0.0045    0.0000 C   0  0  0  0  0  0  0  0  0  0  0  0
    2.6472   -0.0045    0.0000 C   0  0  0  0  0  0  0  0  0  0  0  0
    2.3989   -0.7956    0.0000 N   0  0  0  0  0  0  0  0  0  0  0  0
    3.9537    0.6773    0.0000 C   0  0  0  0  0  0  0  0  0  0  0  0
    4.7751    0.6002    0.0000 C   0  0  0  0  0  0  0  0  0  0  0  0
    5.2526    1.2730    0.0000 N   0  0  0  0  0  0  0  0  0  0  0  0
    2.1553    0.6578    0.0000 O   0  0  0  0  0  0  0  0  0  0  0  0
  4  5  2  0
  5  1  1  0
  2  3  2  0
  3  6  1  0
  6  7  1  0
  1  2  1  0
  7  8  1  0
  3  4  1  0
  4  9  1  0
M  END

> <chembl_id>
CHEMBL211176

> <chembl_pref_name>
None

$$$$

     RDKit          2D

 10 10  0  0  0  0  0  0  0  0999 V2000
    1.5426    0.1194    0.0000 C   0  0  0  0  0  0  0  0  0  0  0  0
    0.5482    0.2250    0.0000 N   0  0  0  0  0  0  0  0  0  0  0  0
   -0.1216   -0.5174    0.0000 C   0  0  0  0  0  0  0  0  0  0  0  0
   -1.0348   -0.1096    0.0000 C   0  0  0  0  0  0  0  0  0  0  0  0
   -1.9012   -0.6086    0.0000 C   0  0  0  0  0  0  0  0  0  0  0  0
   -2.7666   -0.1076    0.0000 C   0  0  0  0  0  0  0  0  0  0  0  0
   -3.6332   -0.6066    0.0000 C   0  0  0  0  0  0  0  0  0  0  0  0
   -4.4986   -0.1056    0.0000 O   0  0  0  0  0  0  0  0  0  0  0  0
   -0.9290    0.8848    0.0000 C   0  0  0  0  0  0  0  0  0  0  0  0
    0.0494    1.0916    0.0000 N   0  0  0  0  0  0  0  0  0  0  0  0
  1  2  1  0
  2  3  1  0
  3  4  2  0
  4  5  1  0
  5  6  1  0
  6  7  1  0
  7  8  1  0
  4  9  1  0
  9 10  2  0
 10  2  1  0
M  END

> <chembl_id>
CHEMBL4549694

> <chembl_pref_name>
None

$$$$

     RDKit          2D

 10 11  0  0  0  0  0  0  0  0999 V2000
   -4.4838    1.7455    0.0000 O   0  0  0  0  0  0  0  0  0  0  0  0
   -3.0317    1.5155    0.0000 N   0  0  0  0  0  0  0  0  0  0  0  0
   -3.4442    2.7851    0.0000 N   0  0  0  0  0  0  0  0  0  0  0  0
   -2.6192    2.7851    0.0000 N   0  0  0  0  0  0  0  0  0  0  0  0
   -3.0317    0.6905    0.0000 C   0  0  0  0  0  0  0  0  0  0  0  0
   -3.6992    2.0004    0.0000 C   0  0  0  0  0  0  0  0  0  0  0  0
   -2.3643    2.0004    0.0000 C   0  0  0  0  0  0  0  0  0  0  0  0
   -2.6192   -0.0240    0.0000 C   0  0  0  0  0  0  0  0  0  0  0  0
   -3.4442   -0.0240    0.0000 C   0  0  0  0  0  0  0  0  0  0  0  0
   -1.5797    1.7455    0.0000 C   0  0  0  0  0  0  0  0  0  0  0  0
  1  6  2  0
  2  5  1  0
  2  6  1  0
  2  7  1  0
  3  4  1  0
  3  6  1  0
  4  7  2  0
  5  8  1  0
  5  9  1  0
  7 10  1  0
  8  9  1  0
M  END

> <chembl_id>
CHEMBL1969673

> <chembl_pref_name>
None

$$$$

     RDKit          2D

  9  9  0  0  0  0  0  0  0  0999 V2000
    2.3997   -1.6797    0.0000 O   0  0  0  0  0  0  0  0  0  0  0  0
    2.1012   -3.0764    0.0000 O   0  0  0  0  0  0  0  0  0  0  0  0
    0.7845   -1.3352    0.0000 N   0  0  0  0  0  0  0  0  0  0  0  0
    0.0000   -1.0798    0.0000 N   0  0  0  0  0  0  0  0  0  0  0  0
    0.0000   -0.2553    0.0000 N   0  0  0  0  0  0  0  0  0  0  0  0
    0.7845    0.0000    0.0000 N   0  0  0  0  0  0  0  0  0  0  0  0
    1.0399   -2.1197    0.0000 C   0  0  0  0  0  0  0  0  0  0  0  0
    1.2706   -0.6676    0.0000 C   0  0  0  0  0  0  0  0  0  0  0  0
    1.8459   -2.2920    0.0000 C   0  0  0  0  0  0  0  0  0  0  0  0
  1  9  2  0
  2  9  1  0
  3  4  1  0
  3  7  1  0
  3  8  1  0
  4  5  2  0
  5  6  1  0
  6  8  2  0
  7  9  1  0
M  END

> <chembl_id>
CHEMBL3182642

> <chembl_pref_name>
None

$$$$

     RDKit          2D

  9  9  0  0  0  0  0  0  0  0999 V2000
    1.2990   -0.7500    0.0000 C   0  0  0  0  0  0  0  0  0  0  0  0
    1.2990    0.7500    0.0000 C   0  0  0  0  0  0  0  0  0  0  0  0
    0.0000   -1.5000    0.0000 C   0  0  0  0  0  0  0  0  0  0  0  0
    0.0000   -2.7000    0.0000 O   0  0  0  0  0  0  0  0  0  0  0  0
    2.3383    1.3500    0.0000 O   0  0  0  0  0  0  0  0  0  0  0  0
   -1.2990    0.7500    0.0000 C   0  0  0  0  0  0  0  0  0  0  0  0
   -1.2990   -0.7500    0.0000 C   0  0  0  0  0  0  0  0  0  0  0  0
    0.0000    1.5000    0.0000 C   0  0  0  0  0  0  0  0  0  0  0  0
    0.0000    2.7000    0.0000 C   0  0  0  0  0  0  0  0  0  0  0  0
  2  1  2  0
  3  1  1  0
  4  3  1  0
  5  2  1  0
  6  7  1  0
  7  3  2  0
  8  2  1  0
  6  8  2  0
  8  9  1  0
M  END

> <chembl_id>
CHEMBL3828450

> <chembl_pref_name>
None

$$$$

     RDKit          2D

 10 10  0  0  0  0  0  0  0  0999 V2000
    1.2703    1.0216    0.0000 C   0  0  0  0  0  0  0  0  0  0  0  0
    1.2703    0.1966    0.0000 C   0  0  0  0  0  0  0  0  0  0  0  0
    0.5558   -0.2159    0.0000 C   0  0  0  0  0  0  0  0  0  0  0  0
    0.5558   -1.0409    0.0000 C   0  0  0  0  0  0  0  0  0  0  0  0
   -0.1586   -1.4534    0.0000 C   0  0  0  0  0  0  0  0  0  0  0  0
   -0.8731   -1.0409    0.0000 C   0  0  0  0  0  0  0  0  0  0  0  0
   -0.8731   -0.2159    0.0000 C   0  0  0  0  0  0  0  0  0  0  0  0
   -0.1586    0.1966    0.0000 C   0  0  0  0  0  0  0  0  0  0  0  0
   -0.1586    1.0216    0.0000 C   0  0  0  0  0  0  0  0  0  0  0  0
   -0.8731    1.4341    0.0000 O   0  0  0  0  0  0  0  0  0  0  0  0
  2  1  1  0
  3  2  1  0
  3  4  2  0
  3  8  1  0
  4  5  1  0
  5  6  2  0
  7  6  1  0
  8  7  2  0
  8  9  1  0
  9 10  1  0
M  END

> <chembl_id>
CHEMBL386156

> <chembl_pref_name>
None

$$$$

     RDKit          2D

  9  9  0  0  0  0  0  0  0  0999 V2000
   11.0898  -14.1152    0.0000 C   0  0  0  0  0  0  0  0  0  0  0  0
   10.2726  -14.1152    0.0000 C   0  0  0  0  0  0  0  0  0  0  0  0
   10.0201  -14.8924    0.0000 N   0  0  0  0  0  0  0  0  0  0  0  0
   10.6812  -15.3728    0.0000 S   0  0  0  0  0  0  0  0  0  0  0  0
   11.3423  -14.8924    0.0000 N   0  0  0  0  0  0  0  0  0  0  0  0
   11.5702  -13.4541    0.0000 O   0  0  0  0  0  0  0  0  0  0  0  0
    9.7923  -13.4540    0.0000 C   0  0  0  0  0  0  0  0  0  0  0  0
    8.9796  -13.5394    0.0000 C   0  0  0  0  0  0  0  0  0  0  0  0
    8.4993  -12.8783    0.0000 N   0  0  0  0  0  0  0  0  0  0  0  0
  1  2  1  0
  2  3  2  0
  3  4  1  0
  4  5  1  0
  5  1  2  0
  1  6  1  0
  2  7  1  0
  7  8  1  0
  8  9  1  0
M  END

> <chembl_id>
CHEMBL4285336

> <chembl_pref_name>
None

$$$$

     RDKit          2D

 10 10  0  0  0  0  0  0  0  0999 V2000
    3.7292   -2.7375    0.0000 C   0  0  0  0  0  0  0  0  0  0  0  0
    3.7292   -1.9125    0.0000 C   0  0  0  0  0  0  0  0  0  0  0  0
    4.4500   -3.1500    0.0000 C   0  0  0  0  0  0  0  0  0  0  0  0
    4.4417   -1.5000    0.0000 O   0  0  0  0  0  0  0  0  0  0  0  0
    3.0167   -1.5042    0.0000 N   0  0  0  0  0  0  0  0  0  0  0  0
    5.1625   -2.7292    0.0000 N   0  0  0  0  0  0  0  0  0  0  0  0
    3.0167   -3.1500    0.0000 C   0  0  0  0  0  0  0  0  0  0  0  0
    4.4500   -3.9792    0.0000 C   0  0  0  0  0  0  0  0  0  0  0  0
    3.0167   -3.9792    0.0000 C   0  0  0  0  0  0  0  0  0  0  0  0
    3.7292   -4.3917    0.0000 C   0  0  0  0  0  0  0  0  0  0  0  0
  2  1  1  0
  3  1  2  0
  4  2  2  0
  5  2  1  0
  6  3  1  0
  7  1  1  0
  8  3  1  0
  9  7  2  0
 10  9  1  0
  8 10  2  0
M  END

> <chembl_id>
CHEMBL43175

> <chembl_pref_name>
ANTHRANILAMIDE

$$$$

     RDKit          2D

 10 10  0  0  0  0  0  0  0  0999 V2000
    1.2990   -0.7500    0.0000 C   0  0  0  0  0  0  0  0  0  0  0  0
    1.2990    0.7500    0.0000 C   0  0  0  0  0  0  0  0  0  0  0  0
    0.0000    1.5000    0.0000 C   0  0  0  0  0  0  0  0  0  0  0  0
   -1.2990    0.7500    0.0000 C   0  0  0  0  0  0  0  0  0  0  0  0
   -1.2990   -0.7500    0.0000 C   0  0  0  0  0  0  0  0  0  0  0  0
    0.0000   -1.5000    0.0000 C   0  0  0  0  0  0  0  0  0  0  0  0
   -2.5972   -1.5031    0.0000 C   0  0  0  0  0  0  0  0  0  0  0  0
   -2.5951   -3.0039    0.0000 C   0  0  0  0  0  0  0  0  0  0  0  0
   -1.5548   -3.6021    0.0000 C   0  0  0  0  0  0  0  0  0  0  0  0
   -3.6331   -3.6061    0.0000 O   0  0  0  0  0  0  0  0  0  0  0  0
  1  2  2  0
  2  3  1  0
  3  4  2  0
  4  5  1  0
  5  6  2  0
  6  1  1  0
  5  7  1  0
  7  8  1  0
  8  9  1  0
  8 10  2  0
M  END

> <chembl_id>
CHEMBL3800510

> <chembl_pref_name>
None

$$$$

     RDKit          2D

 10 11  0  0  0  0  0  0  0  0999 V2000
    1.2780   -2.3979    0.0000 C   0  0  0  0  0  0  0  0  0  0  0  0
    1.2769   -3.2174    0.0000 C   0  0  0  0  0  0  0  0  0  0  0  0
    1.9849   -3.6264    0.0000 C   0  0  0  0  0  0  0  0  0  0  0  0
    1.9831   -1.9890    0.0000 C   0  0  0  0  0  0  0  0  0  0  0  0
    2.6918   -2.3943    0.0000 C   0  0  0  0  0  0  0  0  0  0  0  0
    2.6965   -3.2129    0.0000 C   0  0  0  0  0  0  0  0  0  0  0  0
    3.4766   -3.4613    0.0000 C   0  0  0  0  0  0  0  0  0  0  0  0
    3.9539   -2.7962    0.0000 O   0  0  0  0  0  0  0  0  0  0  0  0
    3.4688   -2.1368    0.0000 C   0  0  0  0  0  0  0  0  0  0  0  0
    3.7168   -1.3582    0.0000 O   0  0  0  0  0  0  0  0  0  0  0  0
  1  2  2  0
  2  3  1  0
  3  6  2  0
  5  4  2  0
  4  1  1  0
  5  6  1  0
  6  7  1  0
  7  8  1  0
  8  9  1  0
  9  5  1  0
  9 10  2  0
M  END

> <chembl_id>
CHEMBL2391738

> <chembl_pref_name>
None

$$$$

     RDKit          2D

  9  9  0  0  0  0  0  0  0  0999 V2000
    1.4057   -5.9280    0.0000 N   0  0  0  0  0  0  0  0  0  0  0  0
    1.8954   -4.8324    0.0000 C   0  0  0  0  0  0  0  0  0  0  0  0
    1.0157   -3.6164    0.0000 C   0  0  0  0  0  0  0  0  0  0  0  0
    1.6281   -2.2462    0.0000 C   0  0  0  0  0  0  0  0  0  0  0  0
    0.7500   -1.0323    0.0000 N   0  0  0  0  0  0  0  0  0  0  0  0
    1.2135    0.3943    0.0000 C   0  0  0  0  0  0  0  0  0  0  0  0
    0.0000    1.2760    0.0000 C   0  0  0  0  0  0  0  0  0  0  0  0
   -1.2135    0.3943    0.0000 N   0  0  0  0  0  0  0  0  0  0  0  0
   -0.7500   -1.0323    0.0000 C   0  0  0  0  0  0  0  0  0  0  0  0
  1  2  1  0
  2  3  1  0
  3  4  1  0
  4  5  1  0
  5  6  1  0
  6  7  2  0
  7  8  1  0
  8  9  2  0
  9  5  1  0
M  END

> <chembl_id>
CHEMBL3984871

> <chembl_pref_name>
None

$$$$

     RDKit          2D

 11 11  0  0  0  0  0  0  0  0999 V2000
    2.5973   -1.5031    0.0000 C   0  0  0  0  0  0  0  0  0  0  0  0
    1.5548   -3.6021    0.0000 N   0  0  0  0  0  0  0  0  0  0  0  0
    1.2990   -0.7500    0.0000 C   0  0  0  0  0  0  0  0  0  0  0  0
    2.5951   -3.0039    0.0000 C   0  0  0  0  0  0  0  0  0  0  0  0
    1.2990    0.7500    0.0000 C   0  0  0  0  0  0  0  0  0  0  0  0
    0.0000   -1.5000    0.0000 C   0  0  0  0  0  0  0  0  0  0  0  0
    3.8933   -3.7570    0.0000 C   0  0  0  0  0  0  0  0  0  0  0  0
    3.8916   -4.9570    0.0000 C   0  0  0  0  0  0  0  0  0  0  0  0
    0.0000    1.5000    0.0000 C   0  0  0  0  0  0  0  0  0  0  0  0
   -1.2990   -0.7500    0.0000 C   0  0  0  0  0  0  0  0  0  0  0  0
   -1.2990    0.7500    0.0000 C   0  0  0  0  0  0  0  0  0  0  0  0
  1  3  1  0
  1  4  1  0
  2  4  1  0
  3  5  2  0
  3  6  1  0
  4  7  1  0
  7  8  1  0
  5  9  1  0
  6 10  2  0
  9 11  2  0
 10 11  1  0
M  END

> <chembl_id>
CHEMBL21360

> <chembl_pref_name>
None

$$$$

     RDKit          2D

  9  9  0  0  0  0  0  0  0  0999 V2000
    0.0520   -2.8942    0.0000 N   0  0  0  0  0  0  0  0  0  0  0  0
   -0.8150   -2.3960    0.0000 C   0  0  0  0  0  0  0  0  0  0  0  0
   -0.8170   -1.3960    0.0000 C   0  0  0  0  0  0  0  0  0  0  0  0
    0.0480   -0.8942    0.0000 C   0  0  0  0  0  0  0  0  0  0  0  0
    0.0460    0.1058    0.0000 C   0  0  0  0  0  0  0  0  0  0  0  0
   -0.8210    0.6040    0.0000 C   0  0  0  0  0  0  0  0  0  0  0  0
   -0.8230    1.6040    0.0000 Cl  0  0  0  0  0  0  0  0  0  0  0  0
   -1.6860    0.1022    0.0000 C   0  0  0  0  0  0  0  0  0  0  0  0
   -1.6840   -0.8976    0.0000 N   0  0  0  0  0  0  0  0  0  0  0  0
  1  2  1  0
  2  3  1  0
  3  4  2  0
  4  5  1  0
  5  6  2  0
  6  7  1  0
  6  8  1  0
  8  9  2  0
  9  3  1  0
M  END

> <chembl_id>
CHEMBL4583748

> <chembl_pref_name>
None

$$$$

     RDKit          2D

 11 12  0  0  0  0  0  0  0  0999 V2000
    1.8476    0.8790    0.0000 C   0  0  0  0  0  0  0  0  0  0  0  0
    0.9848    1.3844    0.0000 C   0  0  0  0  0  0  0  0  0  0  0  0
    0.1156    0.8900    0.0000 C   0  0  0  0  0  0  0  0  0  0  0  0
    0.1092   -0.1098    0.0000 C   0  0  0  0  0  0  0  0  0  0  0  0
   -0.7600   -0.6044    0.0000 N   0  0  0  0  0  0  0  0  0  0  0  0
   -1.6710   -0.1918    0.0000 C   0  0  0  0  0  0  0  0  0  0  0  0
   -2.3448   -0.9306    0.0000 C   0  0  0  0  0  0  0  0  0  0  0  0
   -1.8504   -1.7998    0.0000 C   0  0  0  0  0  0  0  0  0  0  0  0
   -0.8708   -1.5982    0.0000 C   0  0  0  0  0  0  0  0  0  0  0  0
    0.9720   -0.6154    0.0000 N   0  0  0  0  0  0  0  0  0  0  0  0
    1.8412   -0.1210    0.0000 C   0  0  0  0  0  0  0  0  0  0  0  0
  1  2  2  0
  2  3  1  0
  3  4  2  0
  4  5  1  0
  5  6  1  0
  6  7  1  0
  7  8  1  0
  8  9  1  0
  4 10  1  0
 10 11  2  0
 11  1  1  0
  9  5  1  0
M  END

> <chembl_id>
CHEMBL4562496

> <chembl_pref_name>
None

$$$$

     RDKit          2D

  9  9  0  0  0  0  0  0  0  0999 V2000
    1.7750   -0.1252    0.0000 N   0  0  0  0  0  0  0  0  0  0  0  0
    0.9096    0.3758    0.0000 C   0  0  0  0  0  0  0  0  0  0  0  0
    0.9110    1.3758    0.0000 O   0  0  0  0  0  0  0  0  0  0  0  0
    0.0432   -0.1232    0.0000 C   0  0  0  0  0  0  0  0  0  0  0  0
   -0.8700    0.2844    0.0000 C   0  0  0  0  0  0  0  0  0  0  0  0
   -1.5400   -0.4578    0.0000 C   0  0  0  0  0  0  0  0  0  0  0  0
   -2.5342   -0.3522    0.0000 N   0  0  0  0  0  0  0  0  0  0  0  0
   -1.0410   -1.3244    0.0000 C   0  0  0  0  0  0  0  0  0  0  0  0
   -0.0626   -1.1176    0.0000 S   0  0  0  0  0  0  0  0  0  0  0  0
  1  2  1  0
  2  3  2  0
  2  4  1  0
  4  5  2  0
  5  6  1  0
  6  7  1  0
  6  8  2  0
  8  9  1  0
  9  4  1  0
M  END

> <chembl_id>
CHEMBL4523061

> <chembl_pref_name>
None

$$$$

     RDKit          2D

  9 10  0  0  0  0  0  0  0  0999 V2000
    0.8168    1.4236    0.0000 N   0  0  0  0  0  0  0  0  0  0  0  0
    0.5070    0.4728    0.0000 C   0  0  0  0  0  0  0  0  0  0  0  0
    1.0942   -0.3366    0.0000 C   0  0  0  0  0  0  0  0  0  0  0  0
    0.5058   -1.1452    0.0000 C   0  0  0  0  0  0  0  0  0  0  0  0
   -0.4450   -0.8354    0.0000 N   0  0  0  0  0  0  0  0  0  0  0  0
   -1.3962   -1.1436    0.0000 C   0  0  0  0  0  0  0  0  0  0  0  0
   -1.9834   -0.3342    0.0000 C   0  0  0  0  0  0  0  0  0  0  0  0
   -1.3950    0.4744    0.0000 N   0  0  0  0  0  0  0  0  0  0  0  0
   -0.4442    0.1646    0.0000 C   0  0  0  0  0  0  0  0  0  0  0  0
  1  2  1  0
  2  3  1  0
  3  4  1  0
  4  5  1  0
  5  6  1  0
  6  7  2  0
  7  8  1  0
  8  9  2  0
  9  2  1  0
  9  5  1  0
M  END

> <chembl_id>
CHEMBL4517591

> <chembl_pref_name>
None

$$$$

     RDKit          2D

  9  9  0  0  0  0  0  0  0  0999 V2000
   -1.5408   -0.2388    0.0000 C   0  0  0  0  0  0  0  0  0  0  0  0
   -0.5530   -0.3940    0.0000 C   0  0  0  0  0  0  0  0  0  0  0  0
    0.1532    0.3140    0.0000 N   0  0  0  0  0  0  0  0  0  0  0  0
    1.0446   -0.1388    0.0000 C   0  0  0  0  0  0  0  0  0  0  0  0
    1.9352    0.3162    0.0000 C   0  0  0  0  0  0  0  0  0  0  0  0
    2.7744   -0.2274    0.0000 N   0  0  0  0  0  0  0  0  0  0  0  0
    1.9864    1.3148    0.0000 O   0  0  0  0  0  0  0  0  0  0  0  0
    0.8894   -1.1266    0.0000 C   0  0  0  0  0  0  0  0  0  0  0  0
   -0.0980   -1.2844    0.0000 N   0  0  0  0  0  0  0  0  0  0  0  0
  1  2  1  0
  2  3  2  0
  3  4  1  0
  4  5  1  0
  5  6  1  0
  5  7  2  0
  4  8  2  0
  8  9  1  0
  9  2  1  0
M  END

> <chembl_id>
CHEMBL4592593

> <chembl_pref_name>
None

$$$$

     RDKit          2D

 10 10  0  0  0  0  0  0  0  0999 V2000
   -0.5417  -25.1000    0.0000 C   0  0  0  0  0  0  0  0  0  0  0  0
   -0.1333  -25.8083    0.0000 O   0  0  0  0  0  0  0  0  0  0  0  0
   -1.3667  -25.1000    0.0000 C   0  0  0  0  0  0  0  0  0  0  0  0
    0.6917  -24.3833    0.0000 N   0  0  0  0  0  0  0  0  0  0  0  0
   -0.1333  -24.3833    0.0000 C   0  0  0  0  0  0  0  0  0  0  0  0
   -1.7833  -24.3833    0.0000 C   0  0  0  0  0  0  0  0  0  0  0  0
   -1.7833  -25.8083    0.0000 C   0  0  0  0  0  0  0  0  0  0  0  0
   -2.6083  -25.8083    0.0000 C   0  0  0  0  0  0  0  0  0  0  0  0
   -2.6083  -24.3833    0.0000 C   0  0  0  0  0  0  0  0  0  0  0  0
   -3.0167  -25.1000    0.0000 C   0  0  0  0  0  0  0  0  0  0  0  0
  2  1  2  0
  3  1  1  0
  4  5  1  0
  5  1  1  0
  6  3  2  0
  7  3  1  0
  8  7  2  0
  9  6  1  0
 10  9  2  0
 10  8  1  0
M  END

> <chembl_id>
CHEMBL128079

> <chembl_pref_name>
None

$$$$

     RDKit          2D

  9  9  0  0  0  0  0  0  0  0999 V2000
    1.1354    1.4014    0.0000 C   0  0  0  0  0  0  0  0  0  0  0  0
    0.9286    0.4230    0.0000 N   0  0  0  0  0  0  0  0  0  0  0  0
    1.5984   -0.3194    0.0000 C   0  0  0  0  0  0  0  0  0  0  0  0
    1.0994   -1.1860    0.0000 N   0  0  0  0  0  0  0  0  0  0  0  0
    0.1212   -0.9790    0.0000 C   0  0  0  0  0  0  0  0  0  0  0  0
    0.0154    0.0152    0.0000 C   0  0  0  0  0  0  0  0  0  0  0  0
   -0.8512    0.5142    0.0000 C   0  0  0  0  0  0  0  0  0  0  0  0
   -1.7164    0.0132    0.0000 C   0  0  0  0  0  0  0  0  0  0  0  0
   -2.5830    0.5122    0.0000 O   0  0  0  0  0  0  0  0  0  0  0  0
  1  2  1  0
  2  3  1  0
  3  4  2  0
  4  5  1  0
  5  6  2  0
  6  7  1  0
  7  8  1  0
  8  9  1  0
  6  2  1  0
M  END

> <chembl_id>
CHEMBL4591504

> <chembl_pref_name>
None

$$$$

     RDKit          2D

 11 12  0  0  0  0  0  0  0  0999 V2000
   -2.9534   -0.6710    0.0000 C   0  0  0  0  0  0  0  0  0  0  0  0
   -2.0870   -0.1718    0.0000 C   0  0  0  0  0  0  0  0  0  0  0  0
   -1.2214   -0.6724    0.0000 N   0  0  0  0  0  0  0  0  0  0  0  0
   -0.3550   -0.1730    0.0000 C   0  0  0  0  0  0  0  0  0  0  0  0
    0.5106   -0.6738    0.0000 C   0  0  0  0  0  0  0  0  0  0  0  0
    1.3770   -0.1744    0.0000 C   0  0  0  0  0  0  0  0  0  0  0  0
    1.3778    0.8256    0.0000 C   0  0  0  0  0  0  0  0  0  0  0  0
    0.5122    1.3262    0.0000 C   0  0  0  0  0  0  0  0  0  0  0  0
   -0.3542    0.8270    0.0000 C   0  0  0  0  0  0  0  0  0  0  0  0
   -1.2198    1.3276    0.0000 C   0  0  0  0  0  0  0  0  0  0  0  0
   -2.0862    0.8282    0.0000 N   0  0  0  0  0  0  0  0  0  0  0  0
  1  2  1  0
  2  3  2  0
  3  4  1  0
  4  5  2  0
  5  6  1  0
  6  7  2  0
  7  8  1  0
  8  9  2  0
  9 10  1  0
 10 11  1  0
 11  2  1  0
  9  4  1  0
M  END

> <chembl_id>
CHEMBL4575329

> <chembl_pref_name>
None

$$$$

     RDKit          2D

  9  9  0  0  0  0  0  0  0  0999 V2000
    4.8209   -9.1583    0.0000 N   0  0  0  0  0  0  0  0  0  0  0  0
    6.9625  -10.4001    0.0000 C   0  0  0  0  0  0  0  0  0  0  0  0
    6.2481   -9.9876    0.0000 C   0  0  0  0  0  0  0  0  0  0  0  0
    6.2530   -9.1615    0.0000 C   0  0  0  0  0  0  0  0  0  0  0  0
    5.5394   -8.7491    0.0000 C   0  0  0  0  0  0  0  0  0  0  0  0
    4.8266   -9.9909    0.0000 C   0  0  0  0  0  0  0  0  0  0  0  0
    5.5408  -10.3996    0.0000 C   0  0  0  0  0  0  0  0  0  0  0  0
    7.6770   -9.9876    0.0000 C   0  0  0  0  0  0  0  0  0  0  0  0
    8.3915  -10.4001    0.0000 N   0  0  0  0  0  0  0  0  0  0  0  0
  2  3  1  0
  3  4  2  0
  4  5  1  0
  5  1  2  0
  1  6  1  0
  6  7  2  0
  7  3  1  0
  2  8  1  0
  8  9  1  0
M  END

> <chembl_id>
CHEMBL4088360

> <chembl_pref_name>
None

$$$$

     RDKit          2D

 11 12  0  0  1  0  0  0  0  0999 V2000
   -4.1672    1.8963    0.0000 C   0  0  0  0  0  0  0  0  0  0  0  0
   -4.1683    1.0722    0.0000 C   0  0  0  0  0  0  0  0  0  0  0  0
   -3.4565    0.6613    0.0000 C   0  0  0  0  0  0  0  0  0  0  0  0
   -3.4583    2.3072    0.0000 C   0  0  0  0  0  0  0  0  0  0  0  0
   -2.7459    1.8998    0.0000 C   0  0  0  0  0  0  0  0  0  0  0  0
   -2.7426    1.0703    0.0000 C   0  0  0  0  0  0  0  0  0  0  0  0
   -2.0264    0.6608    0.0000 C   0  0  0  0  0  0  0  0  0  0  0  0
   -1.3089    1.0761    0.0000 C   0  0  0  0  0  0  0  0  0  0  0  0
   -1.3124    1.9057    0.0000 C   0  0  0  0  0  0  0  0  0  0  0  0
   -2.0333    2.3198    0.0000 C   0  0  0  0  0  0  0  0  0  0  0  0
   -2.0377    3.1414    0.0000 O   0  0  0  0  0  0  0  0  0  0  0  0
  2  3  1  0
  3  6  2  0
  1  2  2  0
  5  4  2  0
  4  1  1  0
 10  5  1  0
  6  7  1  0
  7  8  1  0
  8  9  1  0
 10  9  1  0
  5  6  1  0
 10 11  1  6
M  END

> <chembl_id>
CHEMBL203428

> <chembl_pref_name>
None

$$$$

     RDKit          2D

 10 10  0  0  0  0  0  0  0  0999 V2000
   27.7913   -2.1255    0.0000 C   0  0  0  0  0  0  0  0  0  0  0  0
   27.7902   -2.9450    0.0000 C   0  0  0  0  0  0  0  0  0  0  0  0
   28.4982   -3.3540    0.0000 N   0  0  0  0  0  0  0  0  0  0  0  0
   29.2079   -2.9445    0.0000 C   0  0  0  0  0  0  0  0  0  0  0  0
   29.2051   -2.1219    0.0000 C   0  0  0  0  0  0  0  0  0  0  0  0
   28.4965   -1.7166    0.0000 C   0  0  0  0  0  0  0  0  0  0  0  0
   29.9112   -1.7106    0.0000 C   0  0  0  0  0  0  0  0  0  0  0  0
   30.6205   -2.1166    0.0000 C   0  0  0  0  0  0  0  0  0  0  0  0
   31.3266   -1.7053    0.0000 C   0  0  0  0  0  0  0  0  0  0  0  0
   32.0359   -2.1112    0.0000 O   0  0  0  0  0  0  0  0  0  0  0  0
  1  2  2  0
  2  3  1  0
  3  4  2  0
  4  5  1  0
  5  6  2  0
  6  1  1  0
  5  7  1  0
  7  8  1  0
  8  9  1  0
  9 10  1  0
M  END

> <chembl_id>
CHEMBL3229431

> <chembl_pref_name>
None

$$$$

     RDKit          2D

  9  9  0  0  0  0  0  0  0  0999 V2000
    2.2167    0.4583    0.0000 N   0  0  0  0  0  0  0  0  0  0  0  0
    1.8042   -0.8125    0.0000 N   0  0  0  0  0  0  0  0  0  0  0  0
    2.4667   -0.3292    0.0000 C   0  0  0  0  0  0  0  0  0  0  0  0
    1.0875   -2.0500    0.0000 C   0  0  0  0  0  0  0  0  0  0  0  0
    1.3917    0.4583    0.0000 C   0  0  0  0  0  0  0  0  0  0  0  0
    1.1292   -0.3292    0.0000 C   0  0  0  0  0  0  0  0  0  0  0  0
    1.8042   -1.6375    0.0000 C   0  0  0  0  0  0  0  0  0  0  0  0
    0.3750   -1.6375    0.0000 O   0  0  0  0  0  0  0  0  0  0  0  0
    1.0875   -2.8750    0.0000 O   0  0  0  0  0  0  0  0  0  0  0  0
  2  3  1  0
  3  1  2  0
  4  7  1  0
  5  1  1  0
  6  5  2  0
  7  2  1  0
  8  4  2  0
  9  4  1  0
  6  2  1  0
M  END

> <chembl_id>
CHEMBL297390

> <chembl_pref_name>
None

$$$$

     RDKit          2D

 10 10  0  0  0  0  0  0  0  0999 V2000
   -0.0573    1.5342    0.0000 F   0  0  0  0  0  0  0  0  0  0  0  0
   -1.4863   -0.9408    0.0000 F   0  0  0  0  0  0  0  0  0  0  0  0
    0.6571    0.2967    0.0000 N   0  0  0  0  0  0  0  0  0  0  0  0
   -0.7718    0.2967    0.0000 N   0  0  0  0  0  0  0  0  0  0  0  0
    1.3716   -0.9408    0.0000 N   0  0  0  0  0  0  0  0  0  0  0  0
    0.6571   -0.5283    0.0000 C   0  0  0  0  0  0  0  0  0  0  0  0
   -0.0573    0.7092    0.0000 C   0  0  0  0  0  0  0  0  0  0  0  0
   -0.7718   -0.5283    0.0000 C   0  0  0  0  0  0  0  0  0  0  0  0
   -0.0573   -0.9408    0.0000 C   0  0  0  0  0  0  0  0  0  0  0  0
    2.0861   -0.5283    0.0000 C   0  0  0  0  0  0  0  0  0  0  0  0
  1  7  1  0
  2  8  1  0
  3  6  1  0
  3  7  2  0
  4  7  1  0
  4  8  2  0
  5  6  1  0
  5 10  1  0
  6  9  2  0
  8  9  1  0
M  END

> <chembl_id>
CHEMBL1726494

> <chembl_pref_name>
None

$$$$
 
     RDKit          2D

 10 10  0  0  0  0  0  0  0  0999 V2000
   24.2017  -11.2604    0.0000 C   0  0  0  0  0  0  0  0  0  0  0  0
   24.2006  -12.0872    0.0000 C   0  0  0  0  0  0  0  0  0  0  0  0
   24.9150  -12.4999    0.0000 C   0  0  0  0  0  0  0  0  0  0  0  0
   25.6311  -12.0868    0.0000 C   0  0  0  0  0  0  0  0  0  0  0  0
   25.6282  -11.2567    0.0000 C   0  0  0  0  0  0  0  0  0  0  0  0
   24.9132  -10.8478    0.0000 C   0  0  0  0  0  0  0  0  0  0  0  0
   24.9108  -10.0232    0.0000 N   0  0  0  0  0  0  0  0  0  0  0  0
   25.6236   -9.6089    0.0000 C   0  0  0  0  0  0  0  0  0  0  0  0
   26.3354   -9.1907    0.0000 S   0  0  0  0  0  0  0  0  0  0  0  0
   24.9148  -13.3245    0.0000 C   0  0  0  0  0  0  0  0  0  0  0  0
  1  2  2  0
  2  3  1  0
  3  4  2  0
  4  5  1  0
  5  6  2  0
  6  1  1  0
  6  7  1  0
  7  8  2  0
  8  9  2  0
  3 10  1  0
M  END

> <chembl_id>
CHEMBL4648542

> <chembl_pref_name>
None

$$$$

     RDKit          2D

  9  9  0  0  0  0  0  0  0  0999 V2000
    0.9500   -3.1917    0.0000 N   0  0  0  0  0  0  0  0  0  0  0  0
    1.4667   -3.4917    0.0000 C   0  0  0  0  0  0  0  0  0  0  0  0
    0.4292   -3.5000    0.0000 C   0  0  0  0  0  0  0  0  0  0  0  0
    1.9875   -3.1917    0.0000 C   0  0  0  0  0  0  0  0  0  0  0  0
    1.4667   -4.1000    0.0000 C   0  0  0  0  0  0  0  0  0  0  0  0
    2.5042   -3.4875    0.0000 C   0  0  0  0  0  0  0  0  0  0  0  0
    0.4292   -4.1000    0.0000 C   0  0  0  0  0  0  0  0  0  0  0  0
    3.0250   -3.1875    0.0000 C   0  0  0  0  0  0  0  0  0  0  0  0
    0.9500   -4.4000    0.0000 C   0  0  0  0  0  0  0  0  0  0  0  0
  2  1  2  0
  3  1  1  0
  4  2  1  0
  5  2  1  0
  6  4  1  0
  7  3  2  0
  8  6  1  0
  9  7  1  0
  5  9  2  0
M  END

> <chembl_id>
CHEMBL21824

> <chembl_pref_name>
None

$$$$

     RDKit          2D

 10 10  0  0  0  0  0  0  0  0999 V2000
    3.1518    0.3692    0.0000 C   0  0  0  0  0  0  0  0  0  0  0  0
    2.2890   -0.1362    0.0000 O   0  0  0  0  0  0  0  0  0  0  0  0
    1.4198    0.3582    0.0000 C   0  0  0  0  0  0  0  0  0  0  0  0
    1.4134    1.3582    0.0000 C   0  0  0  0  0  0  0  0  0  0  0  0
    0.5442    1.8526    0.0000 N   0  0  0  0  0  0  0  0  0  0  0  0
   -0.3186    1.3470    0.0000 C   0  0  0  0  0  0  0  0  0  0  0  0
   -1.1878    1.8414    0.0000 C   0  0  0  0  0  0  0  0  0  0  0  0
   -2.0570    2.3358    0.0000 N   0  0  0  0  0  0  0  0  0  0  0  0
   -0.3122    0.3470    0.0000 C   0  0  0  0  0  0  0  0  0  0  0  0
    0.5570   -0.1474    0.0000 N   0  0  0  0  0  0  0  0  0  0  0  0
  1  2  1  0
  2  3  1  0
  3  4  2  0
  4  5  1  0
  5  6  2  0
  6  7  1  0
  7  8  3  0
  6  9  1  0
  9 10  2  0
 10  3  1  0
M  END

> <chembl_id>
CHEMBL4543853

> <chembl_pref_name>
None

$$$$

     RDKit          2D

 10 10  0  0  0  0  0  0  0  0999 V2000
   -3.7054   -0.4004    0.0000 N   0  0  0  0  0  0  0  0  0  0  0  0
   -2.8412    0.1026    0.0000 C   0  0  0  0  0  0  0  0  0  0  0  0
   -1.9734   -0.3942    0.0000 C   0  0  0  0  0  0  0  0  0  0  0  0
   -1.1092    0.1088    0.0000 C   0  0  0  0  0  0  0  0  0  0  0  0
   -1.1128    1.1088    0.0000 C   0  0  0  0  0  0  0  0  0  0  0  0
   -0.2486    1.6120    0.0000 C   0  0  0  0  0  0  0  0  0  0  0  0
    0.6192    1.1150    0.0000 N   0  0  0  0  0  0  0  0  0  0  0  0
    0.6228    0.1150    0.0000 C   0  0  0  0  0  0  0  0  0  0  0  0
    1.4906   -0.3818    0.0000 N   0  0  0  0  0  0  0  0  0  0  0  0
   -0.2414   -0.3880    0.0000 C   0  0  0  0  0  0  0  0  0  0  0  0
  1  2  1  0
  2  3  1  0
  3  4  1  0
  4  5  2  0
  5  6  1  0
  6  7  2  0
  7  8  1  0
  8  9  1  0
  8 10  2  0
 10  4  1  0
M  END

> <chembl_id>
CHEMBL4545124

> <chembl_pref_name>
None

$$$$

     RDKit          2D

  8  8  0  0  0  0  0  0  0  0999 V2000
    2.2393    0.5156    0.0000 N   0  0  0  0  0  0  0  0  0  0  0  0
    2.9538    0.1031    0.0000 C   0  0  0  0  0  0  0  0  0  0  0  0
    3.6682    0.5156    0.0000 C   0  0  0  0  0  0  0  0  0  0  0  0
    2.9538   -0.7219    0.0000 C   0  0  0  0  0  0  0  0  0  0  0  0
    4.3827    0.1031    0.0000 C   0  0  0  0  0  0  0  0  0  0  0  0
    3.6682   -1.1344    0.0000 C   0  0  0  0  0  0  0  0  0  0  0  0
    4.3827   -0.7219    0.0000 C   0  0  0  0  0  0  0  0  0  0  0  0
    3.6682    1.3406    0.0000 C   0  0  0  0  0  0  0  0  0  0  0  0
  1  2  1  0
  2  3  1  0
  2  4  2  0
  3  5  2  0
  3  8  1  0
  4  6  1  0
  5  7  1  0
  6  7  2  0
M  END

> <chembl_id>
CHEMBL1381

> <chembl_pref_name>
O-TOLYLAMINE

$$$$

     RDKit          2D

 10 10  0  0  0  0  0  0  0  0999 V2000
   -3.3326   -0.8234    0.0000 C   0  0  0  0  0  0  0  0  0  0  0  0
   -2.4684   -0.3200    0.0000 C   0  0  0  0  0  0  0  0  0  0  0  0
   -1.6004   -0.8166    0.0000 O   0  0  0  0  0  0  0  0  0  0  0  0
   -0.7364   -0.3132    0.0000 C   0  0  0  0  0  0  0  0  0  0  0  0
    0.1786   -0.7162    0.0000 N   0  0  0  0  0  0  0  0  0  0  0  0
    0.8450    0.0296    0.0000 N   0  0  0  0  0  0  0  0  0  0  0  0
    1.8398   -0.0710    0.0000 C   0  0  0  0  0  0  0  0  0  0  0  0
    0.3414    0.8936    0.0000 C   0  0  0  0  0  0  0  0  0  0  0  0
   -0.6358    0.6818    0.0000 C   0  0  0  0  0  0  0  0  0  0  0  0
   -1.3816    1.3480    0.0000 N   0  0  0  0  0  0  0  0  0  0  0  0
  1  2  1  0
  2  3  1  0
  3  4  1  0
  4  5  2  0
  5  6  1  0
  6  7  1  0
  6  8  1  0
  8  9  2  0
  9 10  1  0
  9  4  1  0
M  END

> <chembl_id>
CHEMBL4583937

> <chembl_pref_name>
None

$$$$

     RDKit          2D

 10 11  0  0  1  0  0  0  0  0999 V2000
    6.0417   -3.7292    0.0000 C   0  0  0  0  0  0  0  0  0  0  0  0
    5.3375   -3.3167    0.0000 C   0  0  0  0  0  0  0  0  0  0  0  0
    7.0625   -4.3125    0.0000 N   0  0  0  0  0  0  0  0  0  0  0  0
    4.5375   -3.5292    0.0000 N   0  0  0  0  0  0  0  0  0  0  0  0
    6.8417   -3.5125    0.0000 C   0  0  0  0  0  0  0  0  0  0  0  0
    4.6167   -2.1917    0.0000 N   0  0  0  0  0  0  0  0  0  0  0  0
    4.0917   -2.8292    0.0000 C   0  0  0  0  0  0  0  0  0  0  0  0
    6.2625   -4.5292    0.0000 C   0  0  0  0  0  0  0  0  0  0  0  0
    5.3792   -2.4917    0.0000 C   0  0  0  0  0  0  0  0  0  0  0  0
    5.8500   -5.2500    0.0000 C   0  0  0  0  0  0  0  0  0  0  0  0
  1  2  1  1
  3  8  1  0
  4  2  1  0
  5  1  1  0
  6  9  1  0
  7  4  2  0
  8  1  1  0
  9  2  2  0
  8 10  1  6
  5  3  1  0
  6  7  1  0
M  END

> <chembl_id>
CHEMBL79271

> <chembl_pref_name>
None

$$$$

     RDKit          2D

 10 10  0  0  0  0  0  0  0  0999 V2000
    4.6527   -6.9625    0.0000 C   0  0  0  0  0  0  0  0  0  0  0  0
    4.6516   -7.7898    0.0000 C   0  0  0  0  0  0  0  0  0  0  0  0
    5.3664   -8.2027    0.0000 C   0  0  0  0  0  0  0  0  0  0  0  0
    6.0828   -7.7894    0.0000 C   0  0  0  0  0  0  0  0  0  0  0  0
    6.0800   -6.9588    0.0000 C   0  0  0  0  0  0  0  0  0  0  0  0
    5.3646   -6.5497    0.0000 C   0  0  0  0  0  0  0  0  0  0  0  0
    6.7980   -8.2007    0.0000 N   0  0  0  0  0  0  0  0  0  0  0  0
    3.9382   -6.5501    0.0000 C   0  0  0  0  0  0  0  0  0  0  0  0
    3.2238   -6.9628    0.0000 C   0  0  0  0  0  0  0  0  0  0  0  0
    2.5092   -6.5505    0.0000 N   0  0  0  0  0  0  0  0  0  0  0  0
  2  3  1  0
  5  6  2  0
  6  1  1  0
  1  2  2  0
  4  7  1  0
  3  4  2  0
  1  8  1  0
  8  9  1  0
  4  5  1  0
  9 10  1  0
M  END

> <chembl_id>
CHEMBL1650241

> <chembl_pref_name>
None

$$$$

     RDKit          2D

 11 12  0  0  1  0  0  0  0  0999 V2000
    3.8167   -3.6417    0.0000 C   0  0  0  0  0  0  0  0  0  0  0  0
    3.8167   -4.2417    0.0000 C   0  0  0  0  0  0  0  0  0  0  0  0
    4.3375   -3.3417    0.0000 C   0  0  0  0  0  0  0  0  0  0  0  0
    4.3375   -2.7417    0.0000 N   0  0  0  0  0  0  0  0  0  0  0  0
    4.8542   -4.2417    0.0000 C   0  0  0  0  0  0  0  0  0  0  0  0
    3.2917   -3.3417    0.0000 C   0  0  0  0  0  0  0  0  0  0  0  0
    4.3375   -4.5417    0.0000 C   0  0  0  0  0  0  0  0  0  0  0  0
    4.8542   -3.6417    0.0000 C   0  0  0  0  0  0  0  0  0  0  0  0
    3.2917   -4.5417    0.0000 C   0  0  0  0  0  0  0  0  0  0  0  0
    2.7792   -3.6417    0.0000 C   0  0  0  0  0  0  0  0  0  0  0  0
    2.7792   -4.2417    0.0000 C   0  0  0  0  0  0  0  0  0  0  0  0
  2  1  2  0
  3  1  1  0
  3  4  1  1
  5  8  1  0
  6  1  1  0
  7  2  1  0
  8  3  1  0
  9  2  1  0
 10  6  2  0
 11 10  1  0
  5  7  1  0
 11  9  2  0
M  END

> <chembl_id>
CHEMBL39537

> <chembl_pref_name>
None

$$$$

     RDKit          2D

 11 11  0  0  0  0  0  0  0  0999 V2000
   13.2941  -17.7917    0.0000 C   0  0  0  0  0  0  0  0  0  0  0  0
   13.2928  -18.6192    0.0000 C   0  0  0  0  0  0  0  0  0  0  0  0
   14.0058  -19.0321    0.0000 C   0  0  0  0  0  0  0  0  0  0  0  0
   14.7250  -18.6188    0.0000 C   0  0  0  0  0  0  0  0  0  0  0  0
   14.7218  -17.7876    0.0000 C   0  0  0  0  0  0  0  0  0  0  0  0
   14.0038  -17.3789    0.0000 C   0  0  0  0  0  0  0  0  0  0  0  0
   15.4343  -17.3716    0.0000 C   0  0  0  0  0  0  0  0  0  0  0  0
   16.1508  -17.7806    0.0000 C   0  0  0  0  0  0  0  0  0  0  0  0
   16.8631  -17.3646    0.0000 N   0  0  0  0  0  0  0  0  0  0  0  0
   12.5778  -19.0307    0.0000 C   0  0  0  0  0  0  0  0  0  0  0  0
   11.8640  -18.6172    0.0000 C   0  0  0  0  0  0  0  0  0  0  0  0
  5  6  2  0
  6  1  1  0
  1  2  2  0
  5  7  1  0
  3  4  2  0
  7  8  1  0
  8  9  1  0
  4  5  1  0
  2 10  1  0
  2  3  1  0
 10 11  1  0
M  END

> <chembl_id>
CHEMBL453206

> <chembl_pref_name>
None

$$$$

     RDKit          2D

  9  8  0  0  0  0  0  0  0  0999 V2000
   -0.4865   -6.8250    0.0000 Cl  0  0  0  0  0  0  0  0  0  0  0  0
   -3.5901   -9.1261    0.0000 N   0  0  0  0  0  0  0  0  0  0  0  0
   -2.9177   -8.6481    0.0000 C   0  0  0  0  0  0  0  0  0  0  0  0
   -3.1627   -7.8602    0.0000 N   0  0  0  0  0  0  0  0  0  0  0  0
   -3.9902   -7.8512    0.0000 C   0  0  0  0  0  0  0  0  0  0  0  0
   -4.2503   -8.6333    0.0000 C   0  0  0  0  0  0  0  0  0  0  0  0
   -2.1338   -8.9140    0.0000 C   0  0  0  0  0  0  0  0  0  0  0  0
   -1.9716   -9.7229    0.0000 O   0  0  0  0  0  0  0  0  0  0  0  0
   -1.5144   -8.3691    0.0000 O   0  0  0  0  0  0  0  0  0  0  0  0
  4  5  1  0
  5  6  2  0
  6  2  1  0
  2  3  1  0
  3  4  2  0
  7  8  1  0
  7  9  2  0
  3  7  1  0
M  END

> <chembl_id>
CHEMBL1773935

> <chembl_pref_name>
None

$$$$

     RDKit          2D

 11 11  0  0  0  0  0  0  0  0999 V2000
    2.0318   -4.7788    0.0000 C   0  0  0  0  0  0  0  0  0  0  0  0
    2.0306   -5.6061    0.0000 C   0  0  0  0  0  0  0  0  0  0  0  0
    2.7454   -6.0190    0.0000 C   0  0  0  0  0  0  0  0  0  0  0  0
    3.4617   -5.6057    0.0000 C   0  0  0  0  0  0  0  0  0  0  0  0
    3.4589   -4.7752    0.0000 C   0  0  0  0  0  0  0  0  0  0  0  0
    2.7436   -4.3661    0.0000 C   0  0  0  0  0  0  0  0  0  0  0  0
    4.1718   -4.3600    0.0000 C   0  0  0  0  0  0  0  0  0  0  0  0
    4.8878   -4.7698    0.0000 C   0  0  0  0  0  0  0  0  0  0  0  0
    4.1687   -3.5350    0.0000 O   0  0  0  0  0  0  0  0  0  0  0  0
    5.6007   -4.3546    0.0000 C   0  0  0  0  0  0  0  0  0  0  0  0
    6.3121   -3.9393    0.0000 N   0  0  0  0  0  0  0  0  0  0  0  0
  1  2  2  0
  2  3  1  0
  3  4  2  0
  4  5  1  0
  5  6  2  0
  6  1  1  0
  5  7  1  0
  7  8  1  0
  7  9  2  0
  8 10  1  0
 10 11  3  0
M  END

> <chembl_id>
CHEMBL3251047

> <chembl_pref_name>
None

$$$$

     RDKit          2D

  9  9  0  0  0  0  0  0  0  0999 V2000
    5.2042   -2.1917    0.0000 C   0  0  0  0  0  0  0  0  0  0  0  0
    5.2042   -1.3667    0.0000 C   0  0  0  0  0  0  0  0  0  0  0  0
    5.9167   -2.6042    0.0000 N   0  0  0  0  0  0  0  0  0  0  0  0
    5.9167   -0.9542    0.0000 C   0  0  0  0  0  0  0  0  0  0  0  0
    4.4917   -2.6042    0.0000 N   0  0  0  0  0  0  0  0  0  0  0  0
    4.4917   -0.9542    0.0000 N   0  0  0  0  0  0  0  0  0  0  0  0
    6.6375   -2.1917    0.0000 C   0  0  0  0  0  0  0  0  0  0  0  0
    6.6375   -1.3667    0.0000 C   0  0  0  0  0  0  0  0  0  0  0  0
    5.9167   -0.1292    0.0000 C   0  0  0  0  0  0  0  0  0  0  0  0
  2  1  2  0
  3  1  1  0
  4  2  1  0
  5  1  1  0
  6  2  1  0
  7  3  2  0
  8  7  1  0
  9  4  1  0
  8  4  2  0
M  END

> <chembl_id>
CHEMBL61427

> <chembl_pref_name>
None

$$$$

     RDKit          2D

 11 12  0  0  0  0  0  0  0  0999 V2000
    2.5750    0.2208    0.0000 N   0  0  0  0  0  0  0  0  0  0  0  0
    1.9750    0.2208    0.0000 N   0  0  0  0  0  0  0  0  0  0  0  0
    2.7625   -0.3500    0.0000 N   0  0  0  0  0  0  0  0  0  0  0  0
    1.7917   -0.3542    0.0000 N   0  0  0  0  0  0  0  0  0  0  0  0
    2.2792   -0.7042    0.0000 C   0  0  0  0  0  0  0  0  0  0  0  0
    2.2792   -1.3042    0.0000 C   0  0  0  0  0  0  0  0  0  0  0  0
    2.2792   -2.5042    0.0000 N   0  0  0  0  0  0  0  0  0  0  0  0
    1.7667   -2.2042    0.0000 C   0  0  0  0  0  0  0  0  0  0  0  0
    2.8042   -2.2042    0.0000 C   0  0  0  0  0  0  0  0  0  0  0  0
    1.7667   -1.6042    0.0000 C   0  0  0  0  0  0  0  0  0  0  0  0
    2.8042   -1.6042    0.0000 C   0  0  0  0  0  0  0  0  0  0  0  0
  2  1  1  0
  3  1  2  0
  4  2  2  0
  5  3  1  0
  6  5  1  0
  7  9  2  0
  8 10  2  0
  9 11  1  0
 10  6  1  0
 11  6  2  0
  4  5  1  0
  8  7  1  0
M  END

> <chembl_id>
CHEMBL430622

> <chembl_pref_name>
None

$$$$

     RDKit          2D

  7  7  0  0  0  0  0  0  0  0999 V2000
   -2.0583   -0.9000    0.0000 O   0  0  0  0  0  0  0  0  0  0  0  0
   -0.6208   -0.9000    0.0000 C   0  0  0  0  0  0  0  0  0  0  0  0
    0.0792   -2.1500    0.0000 C   0  0  0  0  0  0  0  0  0  0  0  0
    0.0792    0.3250    0.0000 C   0  0  0  0  0  0  0  0  0  0  0  0
    1.5292    0.3250    0.0000 C   0  0  0  0  0  0  0  0  0  0  0  0
    1.5292   -2.1500    0.0000 C   0  0  0  0  0  0  0  0  0  0  0  0
    2.2375   -0.9000    0.0000 C   0  0  0  0  0  0  0  0  0  0  0  0
  2  1  1  0
  3  2  2  0
  4  2  1  0
  5  4  2  0
  6  3  1  0
  7  6  2  0
  5  7  1  0
M  END

> <chembl_id>
CHEMBL14060

> <chembl_pref_name>
PHENOL

$$$$

     RDKit          2D

 10 10  0  0  0  0  0  0  0  0999 V2000
   14.9990  -20.6050    0.0000 N   0  0  0  0  0  0  0  0  0  0  0  0
   15.8240  -20.6050    0.0000 C   0  0  0  0  0  0  0  0  0  0  0  0
   16.2342  -19.8902    0.0000 C   0  0  0  0  0  0  0  0  0  0  0  0
   15.8240  -19.1756    0.0000 C   0  0  0  0  0  0  0  0  0  0  0  0
   17.0592  -19.8902    0.0000 C   0  0  0  0  0  0  0  0  0  0  0  0
   17.4739  -19.1756    0.0000 C   0  0  0  0  0  0  0  0  0  0  0  0
   18.2989  -19.1756    0.0000 C   0  0  0  0  0  0  0  0  0  0  0  0
   18.7091  -19.8902    0.0000 C   0  0  0  0  0  0  0  0  0  0  0  0
   18.2989  -20.6050    0.0000 C   0  0  0  0  0  0  0  0  0  0  0  0
   17.4739  -20.6050    0.0000 C   0  0  0  0  0  0  0  0  0  0  0  0
  2  3  1  0
  3  4  1  6
  1  2  1  0
  5  6  1  0
  6  7  2  0
  7  8  1  0
  8  9  2  0
  9 10  1  0
  5 10  2  0
  3  5  1  0
M  END

> <chembl_id>
CHEMBL508991

> <chembl_pref_name>
None

$$$$

     RDKit          2D

  8  8  0  0  0  0  0  0  0  0999 V2000
   20.4676  -10.0966    0.0000 C   0  0  0  0  0  0  0  0  0  0  0  0
   21.1246  -10.5955    0.0000 N   0  0  0  0  0  0  0  0  0  0  0  0
   21.8034  -10.1263    0.0000 N   0  0  0  0  0  0  0  0  0  0  0  0
   21.5647   -9.3339    0.0000 S   0  0  0  0  0  0  0  0  0  0  0  0
   20.7407   -9.3194    0.0000 C   0  0  0  0  0  0  0  0  0  0  0  0
   20.2696   -8.6421    0.0000 C   0  0  0  0  0  0  0  0  0  0  0  0
   19.4476   -8.7113    0.0000 O   0  0  0  0  0  0  0  0  0  0  0  0
   19.6775  -10.3339    0.0000 C   0  0  0  0  0  0  0  0  0  0  0  0
  3  4  1  0
  4  5  1  0
  5  1  2  0
  1  2  1  0
  5  6  1  0
  6  7  1  0
  2  3  2  0
  1  8  1  0
M  END

> <chembl_id>
CHEMBL1632061

> <chembl_pref_name>
None

$$$$

     RDKit          2D

 10 10  0  0  0  0  0  0  0  0999 V2000
    2.5956   -2.7031    0.0000 C   0  0  0  0  0  0  0  0  0  0  0  0
    2.5973   -1.5031    0.0000 O   0  0  0  0  0  0  0  0  0  0  0  0
    1.2990   -0.7500    0.0000 C   0  0  0  0  0  0  0  0  0  0  0  0
    1.2990    0.7500    0.0000 C   0  0  0  0  0  0  0  0  0  0  0  0
    0.0000    1.5000    0.0000 C   0  0  0  0  0  0  0  0  0  0  0  0
    0.0000    2.7000    0.0000 O   0  0  0  0  0  0  0  0  0  0  0  0
   -1.2990    0.7500    0.0000 C   0  0  0  0  0  0  0  0  0  0  0  0
   -1.2990   -0.7500    0.0000 C   0  0  0  0  0  0  0  0  0  0  0  0
    0.0000   -1.5000    0.0000 C   0  0  0  0  0  0  0  0  0  0  0  0
   -2.3383   -1.3500    0.0000 O   0  0  0  0  0  0  0  0  0  0  0  0
  1  2  1  0
  3  2  1  0
  4  3  1  0
  9  3  2  0
  5  4  2  0
  5  6  1  0
  7  5  1  0
  7  8  2  0
  8  9  1  0
  8 10  1  0
M  END

> <chembl_id>
CHEMBL1738712

> <chembl_pref_name>
FLAMENOL

$$$$

     RDKit          2D

 10 10  0  0  0  0  0  0  0  0999 V2000
    2.7072   -6.8534    0.0000 N   0  0  0  0  0  0  0  0  0  0  0  0
    3.5096   -6.8534    0.0000 N   0  0  0  0  0  0  0  0  0  0  0  0
    3.7570   -6.0270    0.0000 C   0  0  0  0  0  0  0  0  0  0  0  0
    3.1084   -5.5158    0.0000 C   0  0  0  0  0  0  0  0  0  0  0  0
    2.4599   -6.0270    0.0000 C   0  0  0  0  0  0  0  0  0  0  0  0
    4.4459   -5.5850    0.0000 C   0  0  0  0  0  0  0  0  0  0  0  0
    5.1493   -6.0147    0.0000 O   0  0  0  0  0  0  0  0  0  0  0  0
    4.4407   -4.7135    0.0000 O   0  0  0  0  0  0  0  0  0  0  0  0
    1.7618   -5.5896    0.0000 C   0  0  0  0  0  0  0  0  0  0  0  0
    3.1070   -4.7133    0.0000 F   0  0  0  0  0  0  0  0  0  0  0  0
  5  1  1  0
  1  2  1  0
  3  6  1  0
  6  7  1  0
  2  3  2  0
  6  8  2  0
  3  4  1  0
  5  9  1  0
  4  5  2  0
  4 10  1  0
M  END

> <chembl_id>
CHEMBL238004

> <chembl_pref_name>
None

$$$$

     RDKit          2D

  9  9  0  0  0  0  0  0  0  0999 V2000
   -2.6702   -0.4618    0.0000 C   0  0  0  0  0  0  0  0  0  0  0  0
   -1.8038    0.0372    0.0000 N   0  0  0  0  0  0  0  0  0  0  0  0
   -0.9384   -0.4638    0.0000 C   0  0  0  0  0  0  0  0  0  0  0  0
   -0.0718    0.0352    0.0000 C   0  0  0  0  0  0  0  0  0  0  0  0
    0.8414   -0.3726    0.0000 N   0  0  0  0  0  0  0  0  0  0  0  0
    1.5112    0.3698    0.0000 C   0  0  0  0  0  0  0  0  0  0  0  0
    2.5056    0.2642    0.0000 C   0  0  0  0  0  0  0  0  0  0  0  0
    1.0122    1.2364    0.0000 C   0  0  0  0  0  0  0  0  0  0  0  0
    0.0340    1.0296    0.0000 S   0  0  0  0  0  0  0  0  0  0  0  0
  1  2  1  0
  2  3  1  0
  3  4  1  0
  4  5  2  0
  5  6  1  0
  6  7  1  0
  6  8  2  0
  8  9  1  0
  9  4  1  0
M  END

> <chembl_id>
CHEMBL4571256

> <chembl_pref_name>
None

$$$$

     RDKit          2D

  8  8  0  0  0  0  0  0  0  0999 V2000
    2.0801  -22.7699    0.0000 N   0  0  0  0  0  0  0  0  0  0  0  0
    1.4131  -23.2520    0.0000 C   0  0  0  0  0  0  0  0  0  0  0  0
    1.6674  -24.0329    0.0000 C   0  0  0  0  0  0  0  0  0  0  0  0
    2.4887  -24.0329    0.0000 C   0  0  0  0  0  0  0  0  0  0  0  0
    2.7431  -23.2520    0.0000 N   0  0  0  0  0  0  0  0  0  0  0  0
    2.0813  -21.9527    0.0000 C   0  0  0  0  0  0  0  0  0  0  0  0
    2.7896  -21.5452    0.0000 C   0  0  0  0  0  0  0  0  0  0  0  0
    2.7907  -20.7280    0.0000 O   0  0  0  0  0  0  0  0  0  0  0  0
  2  3  2  0
  1  2  1  0
  3  4  1  0
  4  5  2  0
  5  1  1  0
  1  6  1  0
  6  7  1  0
  7  8  1  0
M  END

> <chembl_id>
CHEMBL2323546

> <chembl_pref_name>
None

$$$$

     RDKit          2D

 10 10  0  0  0  0  0  0  0  0999 V2000
    3.8713    0.2458    0.0000 C   0  0  0  0  0  0  0  0  0  0  0  0
    3.8701   -0.5812    0.0000 C   0  0  0  0  0  0  0  0  0  0  0  0
    4.5845   -0.9938    0.0000 C   0  0  0  0  0  0  0  0  0  0  0  0
    5.3006   -0.5807    0.0000 C   0  0  0  0  0  0  0  0  0  0  0  0
    5.2977    0.2494    0.0000 C   0  0  0  0  0  0  0  0  0  0  0  0
    4.5827    0.6582    0.0000 C   0  0  0  0  0  0  0  0  0  0  0  0
    4.5803    1.4827    0.0000 N   0  0  0  0  0  0  0  0  0  0  0  0
    4.5843   -1.8183    0.0000 O   0  0  0  0  0  0  0  0  0  0  0  0
    3.8701   -2.2304    0.0000 C   0  0  0  0  0  0  0  0  0  0  0  0
    3.8699   -3.0549    0.0000 C   0  0  0  0  0  0  0  0  0  0  0  0
  2  3  1  0
  5  6  2  0
  6  1  1  0
  1  2  2  0
  6  7  1  0
  3  4  2  0
  3  8  1  0
  8  9  1  0
  4  5  1  0
  9 10  1  0
M  END

> <chembl_id>
CHEMBL250969

> <chembl_pref_name>
None

$$$$

     RDKit          2D

  9  9  0  0  0  0  0  0  0  0999 V2000
   -3.5830    0.5122    0.0000 C   0  0  0  0  0  0  0  0  0  0  0  0
   -2.7164    0.0132    0.0000 N   0  0  0  0  0  0  0  0  0  0  0  0
   -1.8512    0.5142    0.0000 C   0  0  0  0  0  0  0  0  0  0  0  0
   -0.9846    0.0152    0.0000 C   0  0  0  0  0  0  0  0  0  0  0  0
   -0.8788   -0.9790    0.0000 N   0  0  0  0  0  0  0  0  0  0  0  0
    0.0994   -1.1860    0.0000 C   0  0  0  0  0  0  0  0  0  0  0  0
    0.5984   -0.3194    0.0000 N   0  0  0  0  0  0  0  0  0  0  0  0
   -0.0714    0.4230    0.0000 N   0  0  0  0  0  0  0  0  0  0  0  0
    0.1354    1.4014    0.0000 C   0  0  0  0  0  0  0  0  0  0  0  0
  1  2  1  0
  2  3  1  0
  3  4  1  0
  4  5  2  0
  5  6  1  0
  6  7  2  0
  7  8  1  0
  8  9  1  0
  8  4  1  0
M  END

> <chembl_id>
CHEMBL4583144

> <chembl_pref_name>
None

$$$$

     RDKit          2D

 11 12  0  0  0  0  0  0  0  0999 V2000
    0.4706    1.7388    0.0000 O   0  0  0  0  0  0  0  0  0  0  0  0
    0.4698    0.7388    0.0000 C   0  0  0  0  0  0  0  0  0  0  0  0
    1.3354    0.2382    0.0000 C   0  0  0  0  0  0  0  0  0  0  0  0
    1.3346   -0.7618    0.0000 C   0  0  0  0  0  0  0  0  0  0  0  0
    0.4682   -1.2612    0.0000 N   0  0  0  0  0  0  0  0  0  0  0  0
   -0.3974   -0.7604    0.0000 C   0  0  0  0  0  0  0  0  0  0  0  0
   -1.2638   -1.2598    0.0000 N   0  0  0  0  0  0  0  0  0  0  0  0
   -2.1294   -0.7592    0.0000 C   0  0  0  0  0  0  0  0  0  0  0  0
   -2.1286    0.2408    0.0000 C   0  0  0  0  0  0  0  0  0  0  0  0
   -1.2622    0.7402    0.0000 C   0  0  0  0  0  0  0  0  0  0  0  0
   -0.3966    0.2396    0.0000 C   0  0  0  0  0  0  0  0  0  0  0  0
  1  2  2  0
  2  3  1  0
  3  4  1  0
  4  5  1  0
  5  6  1  0
  6  7  2  0
  7  8  1  0
  8  9  2  0
  9 10  1  0
 10 11  2  0
 11  2  1  0
 11  6  1  0
M  END

> <chembl_id>
CHEMBL4563325

> <chembl_pref_name>
None

$$$$

     RDKit          2D

 11 11  0  0  0  0  0  0  0  0999 V2000
    3.8895   -6.4578    0.0000 N   0  0  0  0  0  0  0  0  0  0  0  0
    3.8912   -5.2578    0.0000 C   0  0  0  0  0  0  0  0  0  0  0  0
    2.5930   -4.5047    0.0000 C   0  0  0  0  0  0  0  0  0  0  0  0
    2.5951   -3.0039    0.0000 C   0  0  0  0  0  0  0  0  0  0  0  0
    2.5973   -1.5031    0.0000 C   0  0  0  0  0  0  0  0  0  0  0  0
    1.2990   -0.7500    0.0000 C   0  0  0  0  0  0  0  0  0  0  0  0
    1.2990    0.7500    0.0000 C   0  0  0  0  0  0  0  0  0  0  0  0
    0.0000    1.5000    0.0000 C   0  0  0  0  0  0  0  0  0  0  0  0
   -1.2990    0.7500    0.0000 C   0  0  0  0  0  0  0  0  0  0  0  0
   -1.2990   -0.7500    0.0000 C   0  0  0  0  0  0  0  0  0  0  0  0
    0.0000   -1.5000    0.0000 C   0  0  0  0  0  0  0  0  0  0  0  0
  1  2  1  0
  2  3  1  0
  3  4  2  0
  4  5  2  0
  5  6  1  0
  6  7  2  0
  7  8  1  0
  8  9  2  0
  9 10  1  0
 10 11  2  0
 11  6  1  0
M  END

> <chembl_id>
CHEMBL3982465

> <chembl_pref_name>
None

$$$$

     RDKit          2D

 11 11  0  0  0  0  0  0  0  0999 V2000
   20.0977  -29.1214    0.0000 C   0  0  0  0  0  0  0  0  0  0  0  0
   19.2727  -29.1214    0.0000 C   0  0  0  0  0  0  0  0  0  0  0  0
   18.4477  -29.1214    0.0000 C   0  0  0  0  0  0  0  0  0  0  0  0
   20.9227  -29.1214    0.0000 N   0  0  0  0  0  0  0  0  0  0  0  0
   17.2102  -28.4056    0.0000 C   0  0  0  0  0  0  0  0  0  0  0  0
   17.6227  -29.1214    0.0000 C   0  0  0  0  0  0  0  0  0  0  0  0
   17.2102  -29.8373    0.0000 C   0  0  0  0  0  0  0  0  0  0  0  0
   16.3852  -29.8373    0.0000 C   0  0  0  0  0  0  0  0  0  0  0  0
   15.9727  -29.1214    0.0000 C   0  0  0  0  0  0  0  0  0  0  0  0
   16.3852  -28.4056    0.0000 C   0  0  0  0  0  0  0  0  0  0  0  0
   17.6230  -27.6912    0.0000 C   0  0  0  0  0  0  0  0  0  0  0  0
  1  2  1  0
  2  3  3  0
  1  4  3  0
  5  6  1  0
  6  7  2  0
  7  8  1  0
  8  9  2  0
  9 10  1  0
  5 10  2  0
  3  6  1  0
  5 11  1  0
M  END

> <chembl_id>
CHEMBL2425324

> <chembl_pref_name>
None

$$$$

     RDKit          2D

 10 10  0  0  0  0  0  0  0  0999 V2000
   -1.3350   -1.5460    0.0000 C   0  0  0  0  0  0  0  0  0  0  0  0
   -0.8386   -0.6780    0.0000 C   0  0  0  0  0  0  0  0  0  0  0  0
   -1.7066   -0.1816    0.0000 C   0  0  0  0  0  0  0  0  0  0  0  0
   -0.3352   -1.5420    0.0000 O   0  0  0  0  0  0  0  0  0  0  0  0
    0.0254   -0.1746    0.0000 C   0  0  0  0  0  0  0  0  0  0  0  0
    0.9404   -0.5778    0.0000 N   0  0  0  0  0  0  0  0  0  0  0  0
    1.6068    0.1680    0.0000 N   0  0  0  0  0  0  0  0  0  0  0  0
    1.1034    1.0320    0.0000 C   0  0  0  0  0  0  0  0  0  0  0  0
    1.5064    1.9472    0.0000 N   0  0  0  0  0  0  0  0  0  0  0  0
    0.1260    0.8204    0.0000 O   0  0  0  0  0  0  0  0  0  0  0  0
  1  2  1  0
  2  3  1  0
  2  4  1  0
  2  5  1  0
  5  6  2  0
  6  7  1  0
  7  8  2  0
  8  9  1  0
  8 10  1  0
 10  5  1  0
M  END

> <chembl_id>
CHEMBL4571020

> <chembl_pref_name>
None

$$$$

     RDKit          2D

  8  8  0  0  0  0  0  0  0  0999 V2000
    3.7750   -2.9542    0.0000 N   0  0  0  0  0  0  0  0  0  0  0  0
    4.4375   -2.4750    0.0000 O   0  0  0  0  0  0  0  0  0  0  0  0
    5.1042   -2.9542    0.0000 C   0  0  0  0  0  0  0  0  0  0  0  0
    4.8500   -3.7417    0.0000 C   0  0  0  0  0  0  0  0  0  0  0  0
    4.0250   -3.7417    0.0000 C   0  0  0  0  0  0  0  0  0  0  0  0
    5.8917   -2.7042    0.0000 C   0  0  0  0  0  0  0  0  0  0  0  0
    6.5042   -3.2542    0.0000 O   0  0  0  0  0  0  0  0  0  0  0  0
    3.5417   -4.4125    0.0000 C   0  0  0  0  0  0  0  0  0  0  0  0
  2  1  1  0
  3  2  1  0
  4  5  1  0
  5  1  2  0
  6  3  1  0
  7  6  1  0
  8  5  1  0
  4  3  2  0
M  END

> <chembl_id>
CHEMBL334685

> <chembl_pref_name>
None

$$$$

     RDKit          2D

  7  7  0  0  0  0  0  0  0  0999 V2000
   -0.7126    0.1730    0.0000 N   0  0  0  0  0  0  0  0  0  0  0  0
    0.0018    0.5855    0.0000 C   0  0  0  0  0  0  0  0  0  0  0  0
    0.7163    0.1730    0.0000 C   0  0  0  0  0  0  0  0  0  0  0  0
    0.7163   -0.6520    0.0000 C   0  0  0  0  0  0  0  0  0  0  0  0
    0.0018   -1.0645    0.0000 C   0  0  0  0  0  0  0  0  0  0  0  0
   -0.7126   -0.6520    0.0000 C   0  0  0  0  0  0  0  0  0  0  0  0
    0.0018    1.4105    0.0000 S   0  0  0  0  0  0  0  0  0  0  0  0
  2  1  2  0
  6  1  1  0
  2  3  1  0
  2  7  1  0
  3  4  2  0
  4  5  1  0
  5  6  2  0
M  END

> <chembl_id>
CHEMBL1235541

> <chembl_pref_name>
2-MERCAPTOPYRIDINE

$$$$

     RDKit          2D

 10 10  0  0  0  0  0  0  0  0999 V2000
   12.9395   -7.1694    0.0000 C   0  0  0  0  0  0  0  0  0  0  0  0
   13.6622   -7.5674    0.0000 C   0  0  0  0  0  0  0  0  0  0  0  0
   14.3682   -7.1405    0.0000 C   0  0  0  0  0  0  0  0  0  0  0  0
   15.0908   -7.5385    0.0000 C   0  0  0  0  0  0  0  0  0  0  0  0
   15.1075   -8.3634    0.0000 C   0  0  0  0  0  0  0  0  0  0  0  0
   14.4015   -8.7902    0.0000 N   0  0  0  0  0  0  0  0  0  0  0  0
   13.6788   -8.3922    0.0000 C   0  0  0  0  0  0  0  0  0  0  0  0
   12.9229   -6.3446    0.0000 O   0  0  0  0  0  0  0  0  0  0  0  0
   12.2335   -7.5962    0.0000 N   0  0  0  0  0  0  0  0  0  0  0  0
   15.8301   -8.7614    0.0000 C   0  0  0  0  0  0  0  0  0  0  0  0
  1  2  1  0
  2  3  1  0
  3  4  2  0
  4  5  1  0
  5  6  2  0
  6  7  1  0
  2  7  2  0
  1  8  2  0
  1  9  1  0
  5 10  1  0
M  END

> <chembl_id>
CHEMBL4204179

> <chembl_pref_name>
None

$$$$

     RDKit          2D

 10 11  0  0  0  0  0  0  0  0999 V2000
    3.6417  -10.1167    0.0000 C   0  0  0  0  0  0  0  0  0  0  0  0
    2.8750   -9.6750    0.0000 C   0  0  0  0  0  0  0  0  0  0  0  0
    2.1167  -11.0042    0.0000 N   0  0  0  0  0  0  0  0  0  0  0  0
    3.6417  -11.0042    0.0000 C   0  0  0  0  0  0  0  0  0  0  0  0
    2.1167  -10.1167    0.0000 C   0  0  0  0  0  0  0  0  0  0  0  0
    4.4042   -9.6792    0.0000 C   0  0  0  0  0  0  0  0  0  0  0  0
    2.8750   -8.7917    0.0000 C   0  0  0  0  0  0  0  0  0  0  0  0
    4.4125   -8.8000    0.0000 C   0  0  0  0  0  0  0  0  0  0  0  0
    5.1750   -8.3542    0.0000 N   0  0  0  0  0  0  0  0  0  0  0  0
    3.6417   -8.3542    0.0000 C   0  0  0  0  0  0  0  0  0  0  0  0
  2  1  1  0
  3  4  1  0
  4  1  2  0
  5  2  2  0
  6  1  1  0
  7  2  1  0
  8  6  1  0
  9  8  1  0
 10  8  1  0
  5  3  1  0
 10  7  1  0
M  END

> <chembl_id>
CHEMBL144236

> <chembl_pref_name>
None

$$$$

     RDKit          2D

 10 10  0  0  0  0  0  0  0  0999 V2000
   -2.9411  -10.1305    0.0000 C   0  0  0  0  0  0  0  0  0  0  0  0
   -2.9423  -10.9572    0.0000 C   0  0  0  0  0  0  0  0  0  0  0  0
   -2.2279  -11.3698    0.0000 C   0  0  0  0  0  0  0  0  0  0  0  0
   -1.5120  -10.9568    0.0000 C   0  0  0  0  0  0  0  0  0  0  0  0
   -1.5149  -10.1268    0.0000 C   0  0  0  0  0  0  0  0  0  0  0  0
   -2.2297   -9.7180    0.0000 C   0  0  0  0  0  0  0  0  0  0  0  0
   -3.6566  -11.3689    0.0000 C   0  0  0  0  0  0  0  0  0  0  0  0
   -0.8023   -9.7119    0.0000 O   0  0  0  0  0  0  0  0  0  0  0  0
   -4.3702  -10.9561    0.0000 N   0  0  0  0  0  0  0  0  0  0  0  0
   -5.0845  -11.3677    0.0000 O   0  0  0  0  0  0  0  0  0  0  0  0
  2  3  2  0
  5  6  1  0
  6  1  2  0
  1  2  1  0
  2  7  1  0
  3  4  1  0
  5  8  1  0
  7  9  2  0
  4  5  2  0
  9 10  1  0
M  END

> <chembl_id>
CHEMBL202611

> <chembl_pref_name>
None

$$$$

     RDKit          2D

 10 10  0  0  0  0  0  0  0  0999 V2000
    0.4736  -18.4666    0.0000 C   0  0  0  0  0  0  0  0  0  0  0  0
    0.4724  -19.2940    0.0000 C   0  0  0  0  0  0  0  0  0  0  0  0
    1.1872  -19.7069    0.0000 N   0  0  0  0  0  0  0  0  0  0  0  0
    1.9037  -19.2935    0.0000 C   0  0  0  0  0  0  0  0  0  0  0  0
    1.9008  -18.4630    0.0000 N   0  0  0  0  0  0  0  0  0  0  0  0
    1.1854  -18.0539    0.0000 C   0  0  0  0  0  0  0  0  0  0  0  0
    2.6188  -19.7049    0.0000 N   0  0  0  0  0  0  0  0  0  0  0  0
    2.6201  -20.5299    0.0000 C   0  0  0  0  0  0  0  0  0  0  0  0
    3.3352  -20.9413    0.0000 C   0  0  0  0  0  0  0  0  0  0  0  0
    3.3365  -21.7663    0.0000 C   0  0  0  0  0  0  0  0  0  0  0  0
  2  3  1  0
  5  6  2  0
  6  1  1  0
  1  2  2  0
  4  7  1  0
  3  4  2  0
  7  8  1  0
  8  9  1  0
  4  5  1  0
  9 10  2  0
M  END

> <chembl_id>
CHEMBL1650060

> <chembl_pref_name>
None

$$$$

     RDKit          2D

  9  9  0  0  0  0  0  0  0  0999 V2000
    2.6720    0.1803    0.0000 N   0  0  0  0  0  0  0  0  0  0  0  0
    3.3330    0.6740    0.0000 C   0  0  0  0  0  0  0  0  0  0  0  0
    3.0677    1.4552    0.0000 C   0  0  0  0  0  0  0  0  0  0  0  0
    2.2427    1.4443    0.0000 C   0  0  0  0  0  0  0  0  0  0  0  0
    1.9982    0.6564    0.0000 N   0  0  0  0  0  0  0  0  0  0  0  0
    1.7491    2.1050    0.0000 C   0  0  0  0  0  0  0  0  0  0  0  0
    4.1205    0.4296    0.0000 C   0  0  0  0  0  0  0  0  0  0  0  0
    1.2173    0.3912    0.0000 C   0  0  0  0  0  0  0  0  0  0  0  0
    0.5973    0.9349    0.0000 O   0  0  0  0  0  0  0  0  0  0  0  0
  4  5  1  0
  5  1  1  0
  1  2  2  0
  4  6  1  0
  2  7  1  0
  2  3  1  0
  5  8  1  0
  3  4  2  0
  8  9  1  0
M  END

> <chembl_id>
CHEMBL1828958

> <chembl_pref_name>
None

$$$$

     RDKit          2D

 10 10  0  0  0  0  0  0  0  0999 V2000
    6.6542   -5.5417    0.0000 C   0  0  0  0  0  0  0  0  0  0  0  0
    5.9417   -5.9542    0.0000 C   0  0  0  0  0  0  0  0  0  0  0  0
    7.3750   -5.9500    0.0000 C   0  0  0  0  0  0  0  0  0  0  0  0
    6.6542   -4.7167    0.0000 C   0  0  0  0  0  0  0  0  0  0  0  0
    8.0875   -5.5375    0.0000 C   0  0  0  0  0  0  0  0  0  0  0  0
    5.9417   -6.7875    0.0000 C   0  0  0  0  0  0  0  0  0  0  0  0
    5.2292   -5.5417    0.0000 C   0  0  0  0  0  0  0  0  0  0  0  0
    5.2292   -7.2000    0.0000 C   0  0  0  0  0  0  0  0  0  0  0  0
    4.5167   -5.9625    0.0000 C   0  0  0  0  0  0  0  0  0  0  0  0
    4.5167   -6.7875    0.0000 C   0  0  0  0  0  0  0  0  0  0  0  0
  2  1  1  0
  3  1  2  0
  4  1  1  0
  5  3  1  0
  6  2  1  0
  7  2  2  0
  8  6  2  0
  9  7  1  0
 10  9  2  0
 10  8  1  0
M  END

> <chembl_id>
CHEMBL40948

> <chembl_pref_name>
None

$$$$

     RDKit          2D

 11 11  0  0  0  0  0  0  0  0999 V2000
   12.7894   -3.8558    0.0000 C   0  0  0  0  0  0  0  0  0  0  0  0
   12.3769   -4.5703    0.0000 C   0  0  0  0  0  0  0  0  0  0  0  0
   11.5519   -4.5703    0.0000 C   0  0  0  0  0  0  0  0  0  0  0  0
   10.7269   -4.5703    0.0000 C   0  0  0  0  0  0  0  0  0  0  0  0
   12.7894   -5.2848    0.0000 O   0  0  0  0  0  0  0  0  0  0  0  0
    9.9019   -4.5703    0.0000 C   0  0  0  0  0  0  0  0  0  0  0  0
    9.4894   -5.2848    0.0000 C   0  0  0  0  0  0  0  0  0  0  0  0
    8.6644   -5.2848    0.0000 C   0  0  0  0  0  0  0  0  0  0  0  0
    8.2519   -4.5703    0.0000 C   0  0  0  0  0  0  0  0  0  0  0  0
    8.6644   -3.8558    0.0000 C   0  0  0  0  0  0  0  0  0  0  0  0
    9.4894   -3.8558    0.0000 C   0  0  0  0  0  0  0  0  0  0  0  0
  1  2  1  0
  2  3  1  0
  3  4  3  0
  2  5  2  0
  6  7  1  0
  7  8  2  0
  8  9  1  0
  9 10  2  0
 10 11  1  0
  6 11  2  0
  4  6  1  0
M  END

> <chembl_id>
CHEMBL2288882

> <chembl_pref_name>
4-PHENYL-3-BUTYN-2-ONE

$$$$

     RDKit          2D

 10 10  0  0  0  0  0  0  0  0999 V2000
    8.2473  -14.7973    0.0000 C   0  0  0  0  0  0  0  0  0  0  0  0
    8.9578  -14.3804    0.0000 C   0  0  0  0  0  0  0  0  0  0  0  0
    8.9512  -13.5553    0.0000 C   0  0  0  0  0  0  0  0  0  0  0  0
    9.6618  -13.1383    0.0000 C   0  0  0  0  0  0  0  0  0  0  0  0
   10.3788  -13.5465    0.0000 C   0  0  0  0  0  0  0  0  0  0  0  0
   10.3854  -14.3714    0.0000 N   0  0  0  0  0  0  0  0  0  0  0  0
    9.6749  -14.7884    0.0000 C   0  0  0  0  0  0  0  0  0  0  0  0
    8.2538  -15.6223    0.0000 O   0  0  0  0  0  0  0  0  0  0  0  0
    7.5302  -14.3893    0.0000 N   0  0  0  0  0  0  0  0  0  0  0  0
    6.8193  -14.8057    0.0000 C   0  0  0  0  0  0  0  0  0  0  0  0
  1  2  1  0
  2  3  1  0
  3  4  2  0
  4  5  1  0
  5  6  2  0
  6  7  1  0
  2  7  2  0
  1  8  2  0
  1  9  1  0
  9 10  1  0
M  END

> <chembl_id>
CHEMBL11978

> <chembl_pref_name>
NICOTINYL METHYLAMIDE

$$$$

     RDKit          2D

 10 10  0  0  0  0  0  0  0  0999 V2000
    9.1917   -4.9125    0.0000 N   0  0  0  0  0  0  0  0  0  0  0  0
    7.7667   -4.0917    0.0000 C   0  0  0  0  0  0  0  0  0  0  0  0
    7.0500   -3.6792    0.0000 N   0  0  0  0  0  0  0  0  0  0  0  0
    7.7625   -4.9167    0.0000 C   0  0  0  0  0  0  0  0  0  0  0  0
    8.4750   -3.6750    0.0000 C   0  0  0  0  0  0  0  0  0  0  0  0
    9.1875   -4.0792    0.0000 C   0  0  0  0  0  0  0  0  0  0  0  0
    8.4792   -5.3250    0.0000 C   0  0  0  0  0  0  0  0  0  0  0  0
    4.9042   -4.0917    0.0000 O   0  0  0  0  0  0  0  0  0  0  0  0
    6.3375   -4.0917    0.0000 C   0  0  0  0  0  0  0  0  0  0  0  0
    5.6167   -3.6792    0.0000 C   0  0  0  0  0  0  0  0  0  0  0  0
  2  4  2  0
  3  2  1  0
  4  7  1  0
  5  6  2  0
  6  1  1  0
  7  1  2  0
  8 10  1  0
  9  3  1  0
 10  9  1  0
  2  5  1  0
M  END

> <chembl_id>
CHEMBL24479

> <chembl_pref_name>
None

$$$$

     RDKit          2D

  7  7  0  0  0  0  0  0  0  0999 V2000
    3.5792   -3.3417    0.0000 N   0  0  0  0  0  0  0  0  0  0  0  0
    2.8625   -2.9292    0.0000 C   0  0  0  0  0  0  0  0  0  0  0  0
    2.8625   -4.5792    0.0000 N   0  0  0  0  0  0  0  0  0  0  0  0
    3.5792   -4.1667    0.0000 C   0  0  0  0  0  0  0  0  0  0  0  0
    2.1500   -3.3417    0.0000 C   0  0  0  0  0  0  0  0  0  0  0  0
    2.8542   -2.1042    0.0000 N   0  0  0  0  0  0  0  0  0  0  0  0
    2.1542   -4.1750    0.0000 C   0  0  0  0  0  0  0  0  0  0  0  0
  2  1  2  0
  3  4  2  0
  4  1  1  0
  5  2  1  0
  6  2  1  0
  7  3  1  0
  7  5  2  0
M  END

> <chembl_id>
CHEMBL302453

> <chembl_pref_name>
None

$$$$

     RDKit          2D

 10 10  0  0  0  0  0  0  0  0999 V2000
    1.5117    0.1600    0.0000 O   0  0  0  0  0  0  0  0  0  0  0  0
    1.2568   -0.6246    0.0000 N   0  0  0  0  0  0  0  0  0  0  0  0
    0.8443    1.4700    0.0000 N   0  0  0  0  0  0  0  0  0  0  0  0
    0.4318   -0.6246    0.0000 C   0  0  0  0  0  0  0  0  0  0  0  0
   -0.0532   -1.2920    0.0000 C   0  0  0  0  0  0  0  0  0  0  0  0
    0.1768    0.1600    0.0000 C   0  0  0  0  0  0  0  0  0  0  0  0
    0.8443    0.6450    0.0000 C   0  0  0  0  0  0  0  0  0  0  0  0
   -0.5381   -1.9595    0.0000 C   0  0  0  0  0  0  0  0  0  0  0  0
   -0.7206   -0.8071    0.0000 C   0  0  0  0  0  0  0  0  0  0  0  0
    0.6143   -1.7769    0.0000 C   0  0  0  0  0  0  0  0  0  0  0  0
  1  2  1  0
  1  7  1  0
  2  4  2  0
  3  7  1  0
  4  5  1  0
  4  6  1  0
  5  8  1  0
  5  9  1  0
  5 10  1  0
  6  7  2  0
M  END

> <chembl_id>
CHEMBL1904213

> <chembl_pref_name>
None

$$$$

     RDKit          2D

 10 10  0  0  0  0  0  0  0  0999 V2000
    2.2792    2.0500    0.0000 N   0  0  0  0  0  0  0  0  0  0  0  0
    2.2875    1.2250    0.0000 C   0  0  0  0  0  0  0  0  0  0  0  0
    3.0000    2.4625    0.0000 O   0  0  0  0  0  0  0  0  0  0  0  0
    1.5667    2.4583    0.0000 C   0  0  0  0  0  0  0  0  0  0  0  0
    1.5750    0.8125    0.0000 C   0  0  0  0  0  0  0  0  0  0  0  0
    3.0042    0.8125    0.0000 C   0  0  0  0  0  0  0  0  0  0  0  0
    0.8542    2.0458    0.0000 C   0  0  0  0  0  0  0  0  0  0  0  0
    1.5750   -0.0167    0.0000 C   0  0  0  0  0  0  0  0  0  0  0  0
    3.0042   -0.0167    0.0000 C   0  0  0  0  0  0  0  0  0  0  0  0
    2.2875   -0.4292    0.0000 C   0  0  0  0  0  0  0  0  0  0  0  0
  2  1  1  0
  3  1  1  0
  4  1  1  0
  5  2  1  0
  6  2  2  0
  7  4  1  0
  8  5  2  0
  9  6  1  0
 10  9  2  0
  8 10  1  0
M  END

> <chembl_id>
CHEMBL153691

> <chembl_pref_name>
None

$$$$

     RDKit          2D

 10 10  0  0  0  0  0  0  0  0999 V2000
    4.4792   -0.8042    0.0000 N   0  0  0  0  0  0  0  0  0  0  0  0
    3.7625   -0.3917    0.0000 N   0  0  0  0  0  0  0  0  0  0  0  0
    5.1917   -1.2167    0.0000 O   0  0  0  0  0  0  0  0  0  0  0  0
    3.0500   -0.8125    0.0000 C   0  0  0  0  0  0  0  0  0  0  0  0
    3.7542    0.4333    0.0000 C   0  0  0  0  0  0  0  0  0  0  0  0
    3.0500   -1.6417    0.0000 C   0  0  0  0  0  0  0  0  0  0  0  0
    2.3292   -0.4000    0.0000 C   0  0  0  0  0  0  0  0  0  0  0  0
    2.3292   -2.0542    0.0000 C   0  0  0  0  0  0  0  0  0  0  0  0
    1.6167   -0.8125    0.0000 C   0  0  0  0  0  0  0  0  0  0  0  0
    1.6167   -1.6417    0.0000 C   0  0  0  0  0  0  0  0  0  0  0  0
  2  1  1  0
  3  1  2  0
  4  2  1  0
  5  2  1  0
  6  4  1  0
  7  4  2  0
  8  6  2  0
  9  7  1  0
 10  9  2  0
 10  8  1  0
M  END

> <chembl_id>
CHEMBL266169

> <chembl_pref_name>
None

$$$$

     RDKit          2D

  9  9  0  0  0  0  0  0  0  0999 V2000
   11.8779  -21.8978    0.0000 O   0  0  0  0  0  0  0  0  0  0  0  0
   12.2865  -21.1911    0.0000 C   0  0  0  0  0  0  0  0  0  0  0  0
   11.8779  -20.4803    0.0000 C   0  0  0  0  0  0  0  0  0  0  0  0
   12.2865  -19.7737    0.0000 C   0  0  0  0  0  0  0  0  0  0  0  0
   11.8779  -19.0670    0.0000 O   0  0  0  0  0  0  0  0  0  0  0  0
   13.1037  -19.7737    0.0000 C   0  0  0  0  0  0  0  0  0  0  0  0
   13.5123  -20.4803    0.0000 C   0  0  0  0  0  0  0  0  0  0  0  0
   13.1037  -21.1912    0.0000 C   0  0  0  0  0  0  0  0  0  0  0  0
   11.0607  -20.4803    0.0000 C   0  0  0  0  0  0  0  0  0  0  0  0
  1  2  1  0
  2  3  1  0
  3  4  2  0
  4  5  1  0
  4  6  1  0
  6  7  2  0
  7  8  1  0
  2  8  2  0
  3  9  1  0
M  END

> <chembl_id>
CHEMBL2332773

> <chembl_pref_name>
None

$$$$

     RDKit          2D

 11 11  0  0  0  0  0  0  0  0999 V2000
   11.1847  -14.6302    0.0000 C   0  0  0  0  0  0  0  0  0  0  0  0
   11.1836  -15.4572    0.0000 C   0  0  0  0  0  0  0  0  0  0  0  0
   11.8980  -15.8698    0.0000 C   0  0  0  0  0  0  0  0  0  0  0  0
   12.6141  -15.4567    0.0000 C   0  0  0  0  0  0  0  0  0  0  0  0
   12.6113  -14.6266    0.0000 C   0  0  0  0  0  0  0  0  0  0  0  0
   11.8962  -14.2177    0.0000 C   0  0  0  0  0  0  0  0  0  0  0  0
   11.8978  -16.6944    0.0000 C   0  0  0  0  0  0  0  0  0  0  0  0
   11.1836  -17.1065    0.0000 N   0  0  0  0  0  0  0  0  0  0  0  0
   12.6118  -17.1069    0.0000 N   0  0  0  0  0  0  0  0  0  0  0  0
   13.3238  -14.2116    0.0000 C   0  0  0  0  0  0  0  0  0  0  0  0
   11.8937  -13.3927    0.0000 C   0  0  0  0  0  0  0  0  0  0  0  0
  1  2  2  0
  2  3  1  0
  3  4  2  0
  4  5  1  0
  5  6  2  0
  6  1  1  0
  3  7  1  0
  7  8  2  0
  7  9  1  0
  5 10  1  0
  6 11  1  0
M  END

> <chembl_id>
CHEMBL3247190

> <chembl_pref_name>
None

$$$$

     RDKit          2D

  8  9  0  0  0  0  0  0  0  0999 V2000
    1.4516    0.8082    0.0000 C   0  0  0  0  0  0  0  0  0  0  0  0
    2.0388   -0.0012    0.0000 N   0  0  0  0  0  0  0  0  0  0  0  0
    1.4504   -0.8098    0.0000 N   0  0  0  0  0  0  0  0  0  0  0  0
    0.4996   -0.5000    0.0000 C   0  0  0  0  0  0  0  0  0  0  0  0
    0.5004    0.5000    0.0000 C   0  0  0  0  0  0  0  0  0  0  0  0
   -0.4504    0.8098    0.0000 C   0  0  0  0  0  0  0  0  0  0  0  0
   -1.0388    0.0012    0.0000 N   0  0  0  0  0  0  0  0  0  0  0  0
   -0.4516   -0.8082    0.0000 C   0  0  0  0  0  0  0  0  0  0  0  0
  1  2  2  0
  2  3  1  0
  3  4  1  0
  4  5  2  0
  5  6  1  0
  6  7  1  0
  7  8  1  0
  5  1  1  0
  8  4  1  0
M  END

> <chembl_id>
CHEMBL4556908

> <chembl_pref_name>
None

$$$$

     RDKit          2D

 11 11  0  0  0  0  0  0  0  0999 V2000
   -2.6764   -9.0208    0.0000 C   0  0  0  0  0  0  0  0  0  0  0  0
   -2.6776   -9.8482    0.0000 C   0  0  0  0  0  0  0  0  0  0  0  0
   -1.9628  -10.2610    0.0000 N   0  0  0  0  0  0  0  0  0  0  0  0
   -1.2463   -9.8477    0.0000 C   0  0  0  0  0  0  0  0  0  0  0  0
   -1.2492   -9.0172    0.0000 C   0  0  0  0  0  0  0  0  0  0  0  0
   -1.9646   -8.6080    0.0000 C   0  0  0  0  0  0  0  0  0  0  0  0
   -1.9670   -7.7830    0.0000 C   0  0  0  0  0  0  0  0  0  0  0  0
   -0.5312  -10.2591    0.0000 N   0  0  0  0  0  0  0  0  0  0  0  0
   -3.3924  -10.2601    0.0000 C   0  0  0  0  0  0  0  0  0  0  0  0
   -4.1065   -9.8470    0.0000 C   0  0  0  0  0  0  0  0  0  0  0  0
   -4.8213  -10.2590    0.0000 C   0  0  0  0  0  0  0  0  0  0  0  0
  5  6  2  0
  6  1  1  0
  1  2  2  0
  6  7  1  0
  3  4  2  0
  4  8  1  0
  2  9  1  0
  4  5  1  0
  9 10  2  0
  2  3  1  0
 10 11  1  0
M  END

> <chembl_id>
CHEMBL501620

> <chembl_pref_name>
None

$$$$

     RDKit          2D

 10 10  0  0  0  0  0  0  0  0999 V2000
    3.2417   -2.2250    0.0000 C   0  0  0  0  0  0  0  0  0  0  0  0
    3.2417   -2.8250    0.0000 C   0  0  0  0  0  0  0  0  0  0  0  0
    2.7167   -1.9250    0.0000 C   0  0  0  0  0  0  0  0  0  0  0  0
    2.7167   -3.1250    0.0000 N   0  0  0  0  0  0  0  0  0  0  0  0
    2.2042   -2.2250    0.0000 C   0  0  0  0  0  0  0  0  0  0  0  0
    2.2042   -2.8250    0.0000 C   0  0  0  0  0  0  0  0  0  0  0  0
    2.7167   -1.3250    0.0000 O   0  0  0  0  0  0  0  0  0  0  0  0
    3.7625   -1.9167    0.0000 O   0  0  0  0  0  0  0  0  0  0  0  0
    3.7625   -3.1250    0.0000 C   0  0  0  0  0  0  0  0  0  0  0  0
    3.7625   -3.7250    0.0000 C   0  0  0  0  0  0  0  0  0  0  0  0
  2  1  1  0
  3  1  2  0
  4  2  2  0
  5  3  1  0
  6  5  2  0
  7  3  1  0
  8  1  1  0
  9  2  1  0
 10  9  1  0
  6  4  1  0
M  END

> <chembl_id>
CHEMBL78354

> <chembl_pref_name>
None

$$$$

     RDKit          2D

 10 10  0  0  0  0  0  0  0  0999 V2000
   16.4611   -6.6208    0.0000 C   0  0  0  0  0  0  0  0  0  0  0  0
   16.4599   -7.4482    0.0000 C   0  0  0  0  0  0  0  0  0  0  0  0
   17.1747   -7.8610    0.0000 C   0  0  0  0  0  0  0  0  0  0  0  0
   17.8912   -7.4477    0.0000 C   0  0  0  0  0  0  0  0  0  0  0  0
   17.8883   -6.6172    0.0000 C   0  0  0  0  0  0  0  0  0  0  0  0
   17.1729   -6.2080    0.0000 C   0  0  0  0  0  0  0  0  0  0  0  0
   15.7451   -7.8601    0.0000 C   0  0  0  0  0  0  0  0  0  0  0  0
   15.0310   -7.4470    0.0000 N   0  0  0  0  0  0  0  0  0  0  0  0
   15.7445   -8.6851    0.0000 N   0  0  0  0  0  0  0  0  0  0  0  0
   18.6012   -6.2020    0.0000 C   0  0  0  0  0  0  0  0  0  0  0  0
  2  3  1  0
  5  6  2  0
  6  1  1  0
  1  2  2  0
  2  7  1  0
  3  4  2  0
  7  8  1  0
  7  9  2  0
  4  5  1  0
  5 10  1  0
M  END

> <chembl_id>
CHEMBL1650243

> <chembl_pref_name>
4-METHYLBENZIMIDAMIDE

$$$$

     RDKit          2D

  9  9  0  0  0  0  0  0  0  0999 V2000
   11.2920  -16.5319    0.0000 C   0  0  0  0  0  0  0  0  0  0  0  0
   11.2908  -17.3588    0.0000 C   0  0  0  0  0  0  0  0  0  0  0  0
   12.0051  -17.7715    0.0000 C   0  0  0  0  0  0  0  0  0  0  0  0
   12.7212  -17.3583    0.0000 C   0  0  0  0  0  0  0  0  0  0  0  0
   12.7183  -16.5283    0.0000 C   0  0  0  0  0  0  0  0  0  0  0  0
   12.0033  -16.1194    0.0000 C   0  0  0  0  0  0  0  0  0  0  0  0
   12.0009  -15.2949    0.0000 C   0  0  0  0  0  0  0  0  0  0  0  0
   11.9929  -14.4665    0.0000 C   0  0  0  0  0  0  0  0  0  0  0  0
   13.4308  -16.1133    0.0000 N   0  0  0  0  0  0  0  0  0  0  0  0
  4  5  1  0
  2  3  1  0
  5  6  2  0
  6  1  1  0
  1  2  2  0
  6  7  1  0
  3  4  2  0
  7  8  3  0
  5  9  1  0
M  END

> <chembl_id>
CHEMBL394629

> <chembl_pref_name>
None

$$$$

     RDKit          2D

 11 11  0  0  0  0  0  0  0  0999 V2000
   -2.1412   -9.8160    0.0000 C   0  0  0  0  0  0  0  0  0  0  0  0
   -2.5789  -10.5182    0.0000 C   0  0  0  0  0  0  0  0  0  0  0  0
   -2.1896  -11.2461    0.0000 C   0  0  0  0  0  0  0  0  0  0  0  0
   -1.3629  -11.2731    0.0000 C   0  0  0  0  0  0  0  0  0  0  0  0
   -0.9270  -10.5662    0.0000 C   0  0  0  0  0  0  0  0  0  0  0  0
   -1.3188   -9.8411    0.0000 C   0  0  0  0  0  0  0  0  0  0  0  0
   -3.4034  -10.4909    0.0000 C   0  0  0  0  0  0  0  0  0  0  0  0
   -3.8394  -11.1913    0.0000 N   0  0  0  0  0  0  0  0  0  0  0  0
   -0.1024  -10.5897    0.0000 C   0  0  0  0  0  0  0  0  0  0  0  0
   -3.7920   -9.7631    0.0000 C   0  0  0  0  0  0  0  0  0  0  0  0
   -4.6639  -11.1640    0.0000 N   0  0  0  0  0  0  0  0  0  0  0  0
  5  6  2  0
  6  1  1  0
  1  2  2  0
  2  7  1  0
  3  4  2  0
  7  8  2  0
  5  9  1  0
  4  5  1  0
  7 10  1  0
  2  3  1  0
  8 11  1  0
M  END

> <chembl_id>
CHEMBL1650244

> <chembl_pref_name>
None

$$$$

     RDKit          2D

 10 11  0  0  0  0  0  0  0  0999 V2000
    8.2595    0.8953    0.0000 O   0  0  0  0  0  0  0  0  0  0  0  0
    8.9242    1.3840    0.0000 C   0  0  0  0  0  0  0  0  0  0  0  0
    8.6666    2.1679    0.0000 C   0  0  0  0  0  0  0  0  0  0  0  0
    7.8390    2.1636    0.0000 C   0  0  0  0  0  0  0  0  0  0  0  0
    7.5915    1.3775    0.0000 C   0  0  0  0  0  0  0  0  0  0  0  0
    9.7072    1.1287    0.0000 C   0  0  0  0  0  0  0  0  0  0  0  0
    9.9656    0.3453    0.0000 C   0  0  0  0  0  0  0  0  0  0  0  0
   10.7906    0.3490    0.0000 C   0  0  0  0  0  0  0  0  0  0  0  0
   11.0421    1.1348    0.0000 C   0  0  0  0  0  0  0  0  0  0  0  0
   10.3724    1.6166    0.0000 N   0  0  0  0  0  0  0  0  0  0  0  0
  5  1  1  0
  6  7  1  0
  1  2  1  0
  2  3  2  0
  3  4  1  0
  4  5  2  0
  7  8  1  0
  8  9  1  0
  9 10  1  0
 10  6  1  0
  6  2  1  1
M  END

> <chembl_id>
CHEMBL451335

> <chembl_pref_name>
None

$$$$

     RDKit          2D

 10 10  0  0  0  0  0  0  0  0999 V2000
    2.2527   -7.9458    0.0000 C   0  0  0  0  0  0  0  0  0  0  0  0
    2.2516   -8.7732    0.0000 N   0  0  0  0  0  0  0  0  0  0  0  0
    2.9664   -9.1860    0.0000 C   0  0  0  0  0  0  0  0  0  0  0  0
    3.6828   -8.7727    0.0000 C   0  0  0  0  0  0  0  0  0  0  0  0
    3.6800   -7.9422    0.0000 C   0  0  0  0  0  0  0  0  0  0  0  0
    2.9646   -7.5330    0.0000 C   0  0  0  0  0  0  0  0  0  0  0  0
    4.3929   -7.5270    0.0000 C   0  0  0  0  0  0  0  0  0  0  0  0
    5.1089   -7.9368    0.0000 N   0  0  0  0  0  0  0  0  0  0  0  0
    4.3898   -6.7020    0.0000 O   0  0  0  0  0  0  0  0  0  0  0  0
    5.1120   -8.7618    0.0000 N   0  0  0  0  0  0  0  0  0  0  0  0
  2  3  1  0
  5  6  2  0
  6  1  1  0
  1  2  2  0
  5  7  1  0
  3  4  2  0
  7  8  1  0
  7  9  2  0
  4  5  1  0
  8 10  1  0
M  ISO  1   7  11
M  END

> <chembl_id>
CHEMBL1090644

> <chembl_pref_name>
None

$$$$

     RDKit          2D

 10 10  0  0  0  0  0  0  0  0999 V2000
    3.5500   -1.7042    0.0000 C   0  0  0  0  0  0  0  0  0  0  0  0
    2.8375   -2.1167    0.0000 C   0  0  0  0  0  0  0  0  0  0  0  0
    3.5500   -0.8792    0.0000 C   0  0  0  0  0  0  0  0  0  0  0  0
    2.1167   -1.7042    0.0000 C   0  0  0  0  0  0  0  0  0  0  0  0
    2.8375   -0.4667    0.0000 C   0  0  0  0  0  0  0  0  0  0  0  0
    4.2792   -2.1292    0.0000 O   0  0  0  0  0  0  0  0  0  0  0  0
    2.1167   -0.8792    0.0000 C   0  0  0  0  0  0  0  0  0  0  0  0
    2.8375   -2.9417    0.0000 O   0  0  0  0  0  0  0  0  0  0  0  0
    3.5500    0.7708    0.0000 O   0  0  0  0  0  0  0  0  0  0  0  0
    2.8375    0.3583    0.0000 C   0  0  0  0  0  0  0  0  0  0  0  0
  2  1  1  0
  3  1  2  0
  4  2  2  0
  5  3  1  0
  6  1  1  0
  7  5  2  0
  8  2  1  0
  9 10  1  0
 10  5  1  0
  4  7  1  0
M  END

> <chembl_id>
CHEMBL440107

> <chembl_pref_name>
None

$$$$

     RDKit          2D

  9  9  0  0  0  0  0  0  0  0999 V2000
    4.9292   -4.3792    0.0000 N   0  0  0  0  0  0  0  0  0  0  0  0
    4.9292   -6.0292    0.0000 N   0  0  0  0  0  0  0  0  0  0  0  0
    5.6417   -4.7917    0.0000 C   0  0  0  0  0  0  0  0  0  0  0  0
    4.2167   -4.7917    0.0000 C   0  0  0  0  0  0  0  0  0  0  0  0
    6.3542   -4.3792    0.0000 S   0  0  0  0  0  0  0  0  0  0  0  0
    5.6417   -5.6167    0.0000 C   0  0  0  0  0  0  0  0  0  0  0  0
    4.2167   -5.6167    0.0000 C   0  0  0  0  0  0  0  0  0  0  0  0
    7.0667   -4.7917    0.0000 C   0  0  0  0  0  0  0  0  0  0  0  0
    3.5042   -4.3792    0.0000 C   0  0  0  0  0  0  0  0  0  0  0  0
  2  7  1  0
  3  1  2  0
  4  1  1  0
  5  3  1  0
  6  3  1  0
  7  4  2  0
  8  5  1  0
  9  4  1  0
  2  6  2  0
M  END

> <chembl_id>
CHEMBL327251

> <chembl_pref_name>
None

$$$$

     RDKit          2D

 10 10  0  0  0  0  0  0  0  0999 V2000
    5.9153  -15.3934    0.0000 C   0  0  0  0  0  0  0  0  0  0  0  0
    5.9141  -16.2203    0.0000 C   0  0  0  0  0  0  0  0  0  0  0  0
    6.6285  -16.6329    0.0000 C   0  0  0  0  0  0  0  0  0  0  0  0
    7.3444  -16.2198    0.0000 C   0  0  0  0  0  0  0  0  0  0  0  0
    7.3415  -15.3898    0.0000 C   0  0  0  0  0  0  0  0  0  0  0  0
    6.6267  -14.9810    0.0000 C   0  0  0  0  0  0  0  0  0  0  0  0
    8.0590  -16.6309    0.0000 F   0  0  0  0  0  0  0  0  0  0  0  0
    5.1998  -16.6319    0.0000 O   0  0  0  0  0  0  0  0  0  0  0  0
    8.0540  -14.9749    0.0000 C   0  0  0  0  0  0  0  0  0  0  0  0
    8.7695  -15.3844    0.0000 O   0  0  0  0  0  0  0  0  0  0  0  0
  2  3  1  0
  5  6  2  0
  6  1  1  0
  1  2  2  0
  4  7  1  0
  3  4  2  0
  2  8  1  0
  5  9  1  0
  4  5  1  0
  9 10  2  0
M  END

> <chembl_id>
CHEMBL1650249

> <chembl_pref_name>
None

$$$$

     RDKit          2D

  7  7  0  0  0  0  0  0  0  0999 V2000
    5.8250   -6.2667    0.0000 C   0  0  0  0  0  0  0  0  0  0  0  0
    6.3500   -6.5667    0.0000 N   0  0  0  0  0  0  0  0  0  0  0  0
    5.3042   -6.5750    0.0000 N   0  0  0  0  0  0  0  0  0  0  0  0
    5.8250   -7.4750    0.0000 N   0  0  0  0  0  0  0  0  0  0  0  0
    5.3042   -7.1750    0.0000 C   0  0  0  0  0  0  0  0  0  0  0  0
    6.3500   -7.1750    0.0000 C   0  0  0  0  0  0  0  0  0  0  0  0
    5.8167   -5.6667    0.0000 N   0  0  0  0  0  0  0  0  0  0  0  0
  2  1  2  0
  3  1  1  0
  4  5  1  0
  5  3  2  0
  6  2  1  0
  7  1  1  0
  4  6  2  0
M  END

> <chembl_id>
CHEMBL89436

> <chembl_pref_name>
None

$$$$

     RDKit          2D

  8  8  0  0  0  0  0  0  0  0999 V2000
   -0.0000   -0.8250    0.0000 C   0  0  0  0  0  0  0  0  0  0  0  0
   -0.7145   -0.4125    0.0000 C   0  0  0  0  0  0  0  0  0  0  0  0
   -0.7145    0.4125    0.0000 C   0  0  0  0  0  0  0  0  0  0  0  0
    0.0000    0.8250    0.0000 C   0  0  0  0  0  0  0  0  0  0  0  0
    0.7145    0.4125    0.0000 C   0  0  0  0  0  0  0  0  0  0  0  0
    0.7145   -0.4125    0.0000 C   0  0  0  0  0  0  0  0  0  0  0  0
   -0.0000   -1.6500    0.0000 C   0  0  0  0  0  0  0  0  0  0  0  0
    0.0000    1.6500    0.0000 C   0  0  0  0  0  0  0  0  0  0  0  0
  1  2  2  0
  1  6  1  0
  1  7  1  0
  2  3  1  0
  3  4  2  0
  4  5  1  0
  4  8  1  0
  5  6  2  0
M  END

> <chembl_id>
CHEMBL31561

> <chembl_pref_name>
P-XYLENE

$$$$

     RDKit          2D

 10 11  0  0  1  0  0  0  0  0999 V2000
    6.0042   -6.2292    0.0000 C   0  0  0  0  0  0  0  0  0  0  0  0
    6.5542   -5.6125    0.0000 C   0  0  0  0  0  0  0  0  0  0  0  0
    6.8042   -6.4042    0.0000 C   0  0  0  0  0  0  0  0  0  0  0  0
    5.2167   -6.4875    0.0000 C   0  0  0  0  0  0  0  0  0  0  0  0
    4.5542   -6.0000    0.0000 N   0  0  0  0  0  0  0  0  0  0  0  0
    4.1417   -7.2750    0.0000 N   0  0  0  0  0  0  0  0  0  0  0  0
    3.8792   -6.4875    0.0000 C   0  0  0  0  0  0  0  0  0  0  0  0
    4.9667   -7.2750    0.0000 C   0  0  0  0  0  0  0  0  0  0  0  0
    7.4167   -6.9542    0.0000 C   0  0  0  0  0  0  0  0  0  0  0  0
    7.2417   -7.7625    0.0000 N   0  0  0  0  0  0  0  0  0  0  0  0
  2  1  1  0
  3  1  1  0
  1  4  1  1
  5  4  1  0
  6  8  1  0
  7  5  2  0
  8  4  2  0
  3  9  1  1
 10  9  1  0
  3  2  1  0
  7  6  1  0
M  END

> <chembl_id>
CHEMBL305135

> <chembl_pref_name>
None

$$$$

     RDKit          2D

  7  7  0  0  0  0  0  0  0  0999 V2000
    1.4924   -3.3321    0.0000 S   0  0  0  0  0  0  0  0  0  0  0  0
    0.6674   -3.3321    0.0000 N   0  0  0  0  0  0  0  0  0  0  0  0
    1.0799   -0.4125    0.0000 N   0  0  0  0  0  0  0  0  0  0  0  0
    1.0799   -2.0625    0.0000 C   0  0  0  0  0  0  0  0  0  0  0  0
    1.7474   -2.5474    0.0000 C   0  0  0  0  0  0  0  0  0  0  0  0
    0.4125   -2.5474    0.0000 C   0  0  0  0  0  0  0  0  0  0  0  0
    1.0799   -1.2375    0.0000 C   0  0  0  0  0  0  0  0  0  0  0  0
  1  2  1  0
  1  5  1  0
  2  6  2  0
  3  7  3  0
  4  5  2  0
  4  6  1  0
  4  7  1  0
M  END

> <chembl_id>
CHEMBL1982829

> <chembl_pref_name>
None

$$$$

     RDKit          2D

 10 10  0  0  0  0  0  0  0  0999 V2000
    5.1236   -3.2628    0.0000 O   0  0  0  0  0  0  0  0  0  0  0  0
    5.1236   -1.6128    0.0000 O   0  0  0  0  0  0  0  0  0  0  0  0
    3.6946   -0.7878    0.0000 O   0  0  0  0  0  0  0  0  0  0  0  0
    4.4091   -2.0253    0.0000 C   0  0  0  0  0  0  0  0  0  0  0  0
    4.4091   -2.8503    0.0000 C   0  0  0  0  0  0  0  0  0  0  0  0
    3.6946   -1.6128    0.0000 C   0  0  0  0  0  0  0  0  0  0  0  0
    3.6946   -3.2628    0.0000 C   0  0  0  0  0  0  0  0  0  0  0  0
    2.9802   -2.0253    0.0000 C   0  0  0  0  0  0  0  0  0  0  0  0
    2.9802   -2.8503    0.0000 C   0  0  0  0  0  0  0  0  0  0  0  0
    5.8380   -2.8503    0.0000 C   0  0  0  0  0  0  0  0  0  0  0  0
  1  5  1  0
  1 10  1  0
  2  4  1  0
  3  6  1  0
  4  5  1  0
  4  6  2  0
  5  7  2  0
  6  8  1  0
  7  9  1  0
  8  9  2  0
M  END

> <chembl_id>
CHEMBL1518159

> <chembl_pref_name>
3-METHOXYCATECHOL

$$$$

     RDKit          2D

  7  7  0  0  0  0  0  0  0  0999 V2000
   18.8196  -11.1741    0.0000 C   0  0  0  0  0  0  0  0  0  0  0  0
   19.4636  -11.6897    0.0000 S   0  0  0  0  0  0  0  0  0  0  0  0
   20.1542  -11.2381    0.0000 C   0  0  0  0  0  0  0  0  0  0  0  0
   19.9359  -10.4398    0.0000 C   0  0  0  0  0  0  0  0  0  0  0  0
   19.1126  -10.4041    0.0000 C   0  0  0  0  0  0  0  0  0  0  0  0
   20.9256  -11.5306    0.0000 C   0  0  0  0  0  0  0  0  0  0  0  0
   21.0580  -12.3449    0.0000 O   0  0  0  0  0  0  0  0  0  0  0  0
  2  3  1  0
  3  4  2  0
  4  5  1  0
  5  1  2  0
  1  2  1  0
  3  6  1  0
  6  7  2  0
M  END

> <chembl_id>
CHEMBL328441

> <chembl_pref_name>
2-THIOPHENENECARBOXALDEHYDE

$$$$

     RDKit          2D

  8  8  0  0  0  0  0  0  0  0999 V2000
    0.7273    0.4147    0.0000 N   0  0  0  0  0  0  0  0  0  0  0  0
    0.7273   -0.4103    0.0000 C   0  0  0  0  0  0  0  0  0  0  0  0
    0.0129   -0.8228    0.0000 C   0  0  0  0  0  0  0  0  0  0  0  0
   -0.7016   -0.4103    0.0000 C   0  0  0  0  0  0  0  0  0  0  0  0
   -0.7016    0.4147    0.0000 C   0  0  0  0  0  0  0  0  0  0  0  0
    0.0129    0.8272    0.0000 C   0  0  0  0  0  0  0  0  0  0  0  0
    0.0129    1.6522    0.0000 N   0  0  0  0  0  0  0  0  0  0  0  0
    0.0129   -1.6478    0.0000 C   0  0  0  0  0  0  0  0  0  0  0  0
  2  1  1  0
  6  1  2  0
  2  3  2  0
  3  4  1  0
  3  8  1  0
  4  5  2  0
  5  6  1  0
  6  7  1  0
M  END

> <chembl_id>
CHEMBL61990

> <chembl_pref_name>
None

$$$$

     RDKit          2D

 10 10  0  0  0  0  0  0  0  0999 V2000
    9.2826   -4.0403    0.0000 C   0  0  0  0  0  0  0  0  0  0  0  0
    9.2814   -4.8666    0.0000 C   0  0  0  0  0  0  0  0  0  0  0  0
    9.9931   -5.2788    0.0000 C   0  0  0  0  0  0  0  0  0  0  0  0
   10.7113   -4.8660    0.0000 C   0  0  0  0  0  0  0  0  0  0  0  0
   10.7081   -4.0364    0.0000 C   0  0  0  0  0  0  0  0  0  0  0  0
    9.9911   -3.6283    0.0000 C   0  0  0  0  0  0  0  0  0  0  0  0
   11.4194   -3.6210    0.0000 C   0  0  0  0  0  0  0  0  0  0  0  0
   12.1347   -4.0293    0.0000 N   0  0  0  0  0  0  0  0  0  0  0  0
   11.4153   -2.7974    0.0000 O   0  0  0  0  0  0  0  0  0  0  0  0
    9.9918   -6.1025    0.0000 O   0  0  0  0  0  0  0  0  0  0  0  0
  2  3  1  0
  5  6  2  0
  6  1  1  0
  1  2  2  0
  5  7  1  0
  3  4  2  0
  7  8  1  0
  7  9  2  0
  4  5  1  0
  3 10  1  0
M  END

> <chembl_id>
CHEMBL419424

> <chembl_pref_name>
None

$$$$

     RDKit          2D

  7  7  0  0  0  0  0  0  0  0999 V2000
    0.4234   -3.4021    0.0000 C   0  0  0  0  0  0  0  0  0  0  0  0
    0.4222   -4.2290    0.0000 N   0  0  0  0  0  0  0  0  0  0  0  0
    1.1365   -4.6417    0.0000 C   0  0  0  0  0  0  0  0  0  0  0  0
    1.8526   -4.2285    0.0000 C   0  0  0  0  0  0  0  0  0  0  0  0
    1.8497   -3.3985    0.0000 N   0  0  0  0  0  0  0  0  0  0  0  0
    1.1347   -2.9896    0.0000 C   0  0  0  0  0  0  0  0  0  0  0  0
    1.1323   -2.1651    0.0000 N   0  0  0  0  0  0  0  0  0  0  0  0
  3  4  2  0
  4  5  1  0
  2  3  1  0
  5  6  2  0
  6  1  1  0
  1  2  2  0
  6  7  1  0
M  END

> <chembl_id>
CHEMBL1834089

> <chembl_pref_name>
None

$$$$

     RDKit          2D

 10 10  0  0  0  0  0  0  0  0999 V2000
    0.5716    0.3232    0.0000 C   0  0  0  0  0  0  0  0  0  0  0  0
    1.2860    0.7357    0.0000 N   0  0  0  0  0  0  0  0  0  0  0  0
    0.5716   -0.5018    0.0000 C   0  0  0  0  0  0  0  0  0  0  0  0
   -0.1429   -0.9143    0.0000 N   0  0  0  0  0  0  0  0  0  0  0  0
   -0.8574   -0.5018    0.0000 C   0  0  0  0  0  0  0  0  0  0  0  0
   -1.5718   -0.9143    0.0000 N   0  0  0  0  0  0  0  0  0  0  0  0
   -0.8574    0.3232    0.0000 N   0  0  0  0  0  0  0  0  0  0  0  0
   -0.1429    0.7357    0.0000 C   0  0  0  0  0  0  0  0  0  0  0  0
   -0.1429    1.5607    0.0000 O   0  0  0  0  0  0  0  0  0  0  0  0
    1.2860   -0.9143    0.0000 O   0  0  0  0  0  0  0  0  0  0  0  0
  1  2  1  0
  3  1  2  0
  1  8  1  0
  3  4  1  0
  3 10  1  0
  5  4  2  0
  5  6  1  0
  5  7  1  0
  8  7  2  0
  8  9  1  0
M  END

> <chembl_id>
CHEMBL175083

> <chembl_pref_name>
None

$$$$

     RDKit          2D

  8  8  0  0  0  0  0  0  0  0999 V2000
   -0.5352   -0.4917    0.0000 C   0  0  0  0  0  0  0  0  0  0  0  0
   -0.5352    0.3333    0.0000 N   0  0  0  0  0  0  0  0  0  0  0  0
    0.1793    0.7458    0.0000 C   0  0  0  0  0  0  0  0  0  0  0  0
    0.8938    0.3333    0.0000 C   0  0  0  0  0  0  0  0  0  0  0  0
    0.8938   -0.4917    0.0000 C   0  0  0  0  0  0  0  0  0  0  0  0
    0.1793   -0.9042    0.0000 N   0  0  0  0  0  0  0  0  0  0  0  0
   -1.2497   -0.9042    0.0000 N   0  0  0  0  0  0  0  0  0  0  0  0
    0.1793    1.5708    0.0000 N   0  0  0  0  0  0  0  0  0  0  0  0
  1  2  2  0
  1  6  1  0
  1  7  1  0
  3  2  1  0
  3  4  2  0
  3  8  1  0
  4  5  1  0
  5  6  2  0
M  END

> <chembl_id>
CHEMBL1233987

> <chembl_pref_name>
DIAMINOPYRIMIDINE

$$$$

     RDKit          2D

 10 10  0  0  0  0  0  0  0  0999 V2000
   -4.0848  -12.7916    0.0000 C   0  0  0  0  0  0  0  0  0  0  0  0
   -4.0859  -13.6190    0.0000 C   0  0  0  0  0  0  0  0  0  0  0  0
   -3.3711  -14.0319    0.0000 N   0  0  0  0  0  0  0  0  0  0  0  0
   -2.6547  -13.6185    0.0000 C   0  0  0  0  0  0  0  0  0  0  0  0
   -2.6575  -12.7880    0.0000 C   0  0  0  0  0  0  0  0  0  0  0  0
   -3.3729  -12.3789    0.0000 C   0  0  0  0  0  0  0  0  0  0  0  0
   -1.9446  -12.3728    0.0000 C   0  0  0  0  0  0  0  0  0  0  0  0
   -1.2286  -12.7826    0.0000 N   0  0  0  0  0  0  0  0  0  0  0  0
   -1.9477  -11.5478    0.0000 O   0  0  0  0  0  0  0  0  0  0  0  0
   -1.9395  -14.0299    0.0000 C   0  0  0  0  0  0  0  0  0  0  0  0
  2  3  1  0
  5  6  2  0
  6  1  1  0
  1  2  2  0
  5  7  1  0
  3  4  2  0
  7  8  1  0
  7  9  2  0
  4  5  1  0
  4 10  1  0
M  END

> <chembl_id>
CHEMBL2064704

> <chembl_pref_name>
None

$$$$

     RDKit          2D

  9  9  0  0  0  0  0  0  0  0999 V2000
    0.2538   -2.0537    0.0000 Cl  0  0  0  0  0  0  0  0  0  0  0  0
    0.9683    0.0088    0.0000 N   0  0  0  0  0  0  0  0  0  0  0  0
    0.9683   -0.8162    0.0000 N   0  0  0  0  0  0  0  0  0  0  0  0
    0.2538    1.2463    0.0000 N   0  0  0  0  0  0  0  0  0  0  0  0
    0.2538    0.4213    0.0000 C   0  0  0  0  0  0  0  0  0  0  0  0
    0.2538   -1.2287    0.0000 C   0  0  0  0  0  0  0  0  0  0  0  0
   -0.4606    0.0088    0.0000 C   0  0  0  0  0  0  0  0  0  0  0  0
   -0.4606   -0.8162    0.0000 C   0  0  0  0  0  0  0  0  0  0  0  0
   -0.4606    1.6588    0.0000 C   0  0  0  0  0  0  0  0  0  0  0  0
  1  6  1  0
  2  3  2  0
  2  5  1  0
  3  6  1  0
  4  5  1  0
  4  9  1  0
  5  7  2  0
  6  8  2  0
  7  8  1  0
M  END

> <chembl_id>
CHEMBL1905096

> <chembl_pref_name>
None

$$$$

     RDKit          2D

 10 10  0  0  0  0  0  0  0  0999 V2000
    5.9167   -2.6042    0.0000 N   0  0  0  0  0  0  0  0  0  0  0  0
    5.2042   -2.1917    0.0000 C   0  0  0  0  0  0  0  0  0  0  0  0
    6.6375   -2.1917    0.0000 C   0  0  0  0  0  0  0  0  0  0  0  0
    5.9167   -0.9542    0.0000 C   0  0  0  0  0  0  0  0  0  0  0  0
    5.2042   -1.3667    0.0000 C   0  0  0  0  0  0  0  0  0  0  0  0
    4.4917   -2.6042    0.0000 N   0  0  0  0  0  0  0  0  0  0  0  0
    6.6375   -1.3667    0.0000 C   0  0  0  0  0  0  0  0  0  0  0  0
    7.3542   -2.6042    0.0000 C   0  0  0  0  0  0  0  0  0  0  0  0
    5.9167   -0.1292    0.0000 C   0  0  0  0  0  0  0  0  0  0  0  0
    7.3542   -3.4292    0.0000 C   0  0  0  0  0  0  0  0  0  0  0  0
  2  1  1  0
  3  1  2  0
  4  7  2  0
  5  2  2  0
  6  2  1  0
  7  3  1  0
  8  3  1  0
  9  4  1  0
 10  8  1  0
  5  4  1  0
M  END

> <chembl_id>
CHEMBL294084

> <chembl_pref_name>
None

$$$$

     RDKit          2D

 10 10  0  0  0  0  0  0  0  0999 V2000
    6.8578   -9.3010    0.0000 N   0  0  0  0  0  0  0  0  0  0  0  0
    7.5297   -8.8234    0.0000 C   0  0  0  0  0  0  0  0  0  0  0  0
    7.2849   -8.0362    0.0000 N   0  0  0  0  0  0  0  0  0  0  0  0
    6.4581   -8.0273    0.0000 C   0  0  0  0  0  0  0  0  0  0  0  0
    6.1983   -8.8086    0.0000 C   0  0  0  0  0  0  0  0  0  0  0  0
    8.2417   -9.2437    0.0000 C   0  0  0  0  0  0  0  0  0  0  0  0
    8.9591   -8.8379    0.0000 C   0  0  0  0  0  0  0  0  0  0  0  0
    9.6718   -9.2546    0.0000 C   0  0  0  0  0  0  0  0  0  0  0  0
    9.6678  -10.0802    0.0000 O   0  0  0  0  0  0  0  0  0  0  0  0
   10.3896   -8.8458    0.0000 O   0  0  0  0  0  0  0  0  0  0  0  0
  5  1  1  0
  1  2  1  0
  2  6  1  0
  6  7  1  0
  2  3  2  0
  7  8  1  0
  3  4  1  0
  4  5  2  0
  8  9  1  0
  8 10  2  0
M  END

> <chembl_id>
CHEMBL1789770

> <chembl_pref_name>
None

$$$$

     RDKit          2D

 10 10  0  0  0  0  0  0  0  0999 V2000
    7.8875   -1.6667    0.0000 N   0  0  0  0  0  0  0  0  0  0  0  0
    7.1792   -1.2625    0.0000 C   0  0  0  0  0  0  0  0  0  0  0  0
    8.6000   -1.2625    0.0000 C   0  0  0  0  0  0  0  0  0  0  0  0
    7.1792   -0.4375    0.0000 C   0  0  0  0  0  0  0  0  0  0  0  0
    6.4625   -1.6750    0.0000 O   0  0  0  0  0  0  0  0  0  0  0  0
    8.6000   -0.4375    0.0000 C   0  0  0  0  0  0  0  0  0  0  0  0
    7.8875   -0.0167    0.0000 C   0  0  0  0  0  0  0  0  0  0  0  0
    7.8875   -2.4917    0.0000 C   0  0  0  0  0  0  0  0  0  0  0  0
    8.6042   -2.9042    0.0000 C   0  0  0  0  0  0  0  0  0  0  0  0
    8.6042   -3.7292    0.0000 C   0  0  0  0  0  0  0  0  0  0  0  0
  2  1  1  0
  3  1  1  0
  4  2  1  0
  5  2  2  0
  6  3  2  0
  7  6  1  0
  8  1  1  0
  9  8  1  0
 10  9  1  0
  7  4  2  0
M  END

> <chembl_id>
CHEMBL12433

> <chembl_pref_name>
None

$$$$

     RDKit          2D

 10 10  0  0  0  0  0  0  0  0999 V2000
    1.5500   -4.0667    0.0000 C   0  0  0  0  0  0  0  0  0  0  0  0
    0.7625   -4.3292    0.0000 C   0  0  0  0  0  0  0  0  0  0  0  0
    1.7167   -3.2667    0.0000 C   0  0  0  0  0  0  0  0  0  0  0  0
    0.5042   -5.1167    0.0000 O   0  0  0  0  0  0  0  0  0  0  0  0
    0.0917   -3.8417    0.0000 C   0  0  0  0  0  0  0  0  0  0  0  0
    1.1042   -2.7167    0.0000 O   0  0  0  0  0  0  0  0  0  0  0  0
   -0.3208   -5.1167    0.0000 C   0  0  0  0  0  0  0  0  0  0  0  0
   -0.5708   -4.3292    0.0000 C   0  0  0  0  0  0  0  0  0  0  0  0
    2.1542   -4.6292    0.0000 O   0  0  0  0  0  0  0  0  0  0  0  0
    2.5042   -3.0167    0.0000 O   0  0  0  0  0  0  0  0  0  0  0  0
  2  1  1  0
  3  1  1  0
  4  2  1  0
  5  2  2  0
  6  3  2  0
  7  4  1  0
  8  5  1  0
  1  9  1  0
 10  3  1  0
  8  7  2  0
M  END

> <chembl_id>
CHEMBL57978

> <chembl_pref_name>
None

$$$$

     RDKit          2D

  9  9  0  0  0  0  0  0  0  0999 V2000
   37.3679   -3.5844    0.0000 C   0  0  0  0  0  0  0  0  0  0  0  0
   38.1933   -3.5855    0.0000 C   0  0  0  0  0  0  0  0  0  0  0  0
   38.6073   -2.8719    0.0000 C   0  0  0  0  0  0  0  0  0  0  0  0
   38.1928   -2.1608    0.0000 C   0  0  0  0  0  0  0  0  0  0  0  0
   37.3643   -2.1636    0.0000 C   0  0  0  0  0  0  0  0  0  0  0  0
   36.9582   -2.8737    0.0000 C   0  0  0  0  0  0  0  0  0  0  0  0
   38.6084   -4.3028    0.0000 O   0  0  0  0  0  0  0  0  0  0  0  0
   36.1310   -2.8761    0.0000 C   0  0  0  0  0  0  0  0  0  0  0  0
   35.7133   -2.1647    0.0000 N   0  0  0  0  0  0  0  0  0  0  0  0
  1  2  2  0
  2  3  1  0
  3  4  2  0
  4  5  1  0
  5  6  2  0
  6  1  1  0
  2  7  1  0
  6  8  1  0
  8  9  1  0
M  END

> <chembl_id>
CHEMBL4069065

> <chembl_pref_name>
None

$$$$

     RDKit          2D

  9  9  0  0  0  0  0  0  0  0999 V2000
   -1.4289   -0.8250    0.0000 O   0  0  0  0  0  0  0  0  0  0  0  0
    0.7145    0.4125    0.0000 N   0  0  0  0  0  0  0  0  0  0  0  0
   -0.7145   -0.4125    0.0000 C   0  0  0  0  0  0  0  0  0  0  0  0
    0.7145   -0.4125    0.0000 C   0  0  0  0  0  0  0  0  0  0  0  0
    0.0000    0.8250    0.0000 C   0  0  0  0  0  0  0  0  0  0  0  0
    0.0000   -0.8250    0.0000 C   0  0  0  0  0  0  0  0  0  0  0  0
   -0.7145    0.4125    0.0000 C   0  0  0  0  0  0  0  0  0  0  0  0
    1.4289   -0.8250    0.0000 C   0  0  0  0  0  0  0  0  0  0  0  0
    0.0000    1.6500    0.0000 C   0  0  0  0  0  0  0  0  0  0  0  0
  1  3  1  0
  2  4  2  0
  2  5  1  0
  3  6  2  0
  3  7  1  0
  4  6  1  0
  4  8  1  0
  5  7  2  0
  5  9  1  0
M  END

> <chembl_id>
CHEMBL1429618

> <chembl_pref_name>
None

$$$$

     RDKit          2D

 10 10  0  0  0  0  0  0  0  0999 V2000
    2.8670   -2.4826    0.0000 O   0  0  0  0  0  0  0  0  0  0  0  0
    1.4227    0.0000    0.0000 O   0  0  0  0  0  0  0  0  0  0  0  0
    2.1484   -2.0587    0.0000 C   0  0  0  0  0  0  0  0  0  0  0  0
    1.4227   -0.8192    0.0000 C   0  0  0  0  0  0  0  0  0  0  0  0
    0.7149   -2.0587    0.0000 C   0  0  0  0  0  0  0  0  0  0  0  0
    2.1484   -1.2395    0.0000 C   0  0  0  0  0  0  0  0  0  0  0  0
    1.4227   -2.4826    0.0000 C   0  0  0  0  0  0  0  0  0  0  0  0
    0.7149   -1.2395    0.0000 C   0  0  0  0  0  0  0  0  0  0  0  0
    0.0000   -2.4826    0.0000 C   0  0  0  0  0  0  0  0  0  0  0  0
    3.5927   -2.0587    0.0000 C   0  0  0  0  0  0  0  0  0  0  0  0
  1  3  1  0
  1 10  1  0
  2  4  1  0
  3  6  1  0
  3  7  2  0
  4  6  2  0
  4  8  1  0
  5  7  1  0
  5  8  2  0
  5  9  1  0
M  END

> <chembl_id>
CHEMBL3187650

> <chembl_pref_name>
None

$$$$

     RDKit          2D

 10 10  0  0  0  0  0  0  0  0999 V2000
   -2.7220   -0.6354    0.0000 N   0  0  0  0  0  0  0  0  0  0  0  0
   -1.8578   -0.1324    0.0000 C   0  0  0  0  0  0  0  0  0  0  0  0
   -1.8614    0.8676    0.0000 O   0  0  0  0  0  0  0  0  0  0  0  0
   -0.9900   -0.6292    0.0000 C   0  0  0  0  0  0  0  0  0  0  0  0
   -0.1258   -0.1262    0.0000 C   0  0  0  0  0  0  0  0  0  0  0  0
    0.7420   -0.6230    0.0000 C   0  0  0  0  0  0  0  0  0  0  0  0
    1.6064   -0.1200    0.0000 C   0  0  0  0  0  0  0  0  0  0  0  0
    1.6026    0.8800    0.0000 N   0  0  0  0  0  0  0  0  0  0  0  0
    0.7348    1.3768    0.0000 C   0  0  0  0  0  0  0  0  0  0  0  0
   -0.1294    0.8738    0.0000 C   0  0  0  0  0  0  0  0  0  0  0  0
  1  2  1  0
  2  3  2  0
  2  4  1  0
  4  5  1  0
  5  6  2  0
  6  7  1  0
  7  8  2  0
  8  9  1  0
  9 10  2  0
 10  5  1  0
M  END

> <chembl_id>
CHEMBL4577682

> <chembl_pref_name>
None

$$$$

     RDKit          2D

 10 10  0  0  0  0  0  0  0  0999 V2000
    6.7160   -2.2938    0.0000 N   0  0  0  0  0  0  0  0  0  0  0  0
    5.2871   -0.6438    0.0000 N   0  0  0  0  0  0  0  0  0  0  0  0
    6.7160   -3.9438    0.0000 C   0  0  0  0  0  0  0  0  0  0  0  0
    7.4305   -2.7063    0.0000 C   0  0  0  0  0  0  0  0  0  0  0  0
    6.0016   -2.7063    0.0000 C   0  0  0  0  0  0  0  0  0  0  0  0
    7.4305   -3.5313    0.0000 C   0  0  0  0  0  0  0  0  0  0  0  0
    6.0016   -3.5313    0.0000 C   0  0  0  0  0  0  0  0  0  0  0  0
    6.7160   -1.4688    0.0000 C   0  0  0  0  0  0  0  0  0  0  0  0
    6.0016   -1.0563    0.0000 C   0  0  0  0  0  0  0  0  0  0  0  0
    6.7160   -4.7688    0.0000 C   0  0  0  0  0  0  0  0  0  0  0  0
  1  4  2  0
  1  5  1  0
  1  8  1  0
  2  9  3  0
  3  6  2  0
  3  7  1  0
  3 10  1  0
  4  6  1  0
  5  7  2  0
  8  9  1  0
M  CHG  1   1   1
M  END

> <chembl_id>
CHEMBL1903713

> <chembl_pref_name>
None

$$$$

     RDKit          2D

 10 11  0  0  0  0  0  0  0  0999 V2000
    1.2920    1.8380    0.0000 N   0  0  0  0  0  0  0  0  0  0  0  0
    1.5500    0.8718    0.0000 C   0  0  0  0  0  0  0  0  0  0  0  0
    0.8422    0.1652    0.0000 C   0  0  0  0  0  0  0  0  0  0  0  0
    0.8414   -0.8348    0.0000 C   0  0  0  0  0  0  0  0  0  0  0  0
   -0.1586   -0.8340    0.0000 C   0  0  0  0  0  0  0  0  0  0  0  0
   -1.0250   -1.3334    0.0000 C   0  0  0  0  0  0  0  0  0  0  0  0
   -1.8906   -0.8326    0.0000 C   0  0  0  0  0  0  0  0  0  0  0  0
   -1.8898    0.1674    0.0000 C   0  0  0  0  0  0  0  0  0  0  0  0
   -1.0234    0.6666    0.0000 C   0  0  0  0  0  0  0  0  0  0  0  0
   -0.1578    0.1660    0.0000 C   0  0  0  0  0  0  0  0  0  0  0  0
  1  2  1  0
  2  3  1  0
  3  4  1  0
  4  5  1  0
  5  6  2  0
  6  7  1  0
  7  8  2  0
  8  9  1  0
  9 10  2  0
 10  3  1  0
 10  5  1  0
M  END

> <chembl_id>
CHEMBL4566369

> <chembl_pref_name>
None

$$$$

     RDKit          2D

  9  9  0  0  0  0  0  0  0  0999 V2000
    2.5046   -0.7250    0.0000 C   0  0  0  0  0  0  0  0  0  0  0  0
    1.5096   -0.6244    0.0000 C   0  0  0  0  0  0  0  0  0  0  0  0
    0.8434   -1.3700    0.0000 C   0  0  0  0  0  0  0  0  0  0  0  0
   -0.0716   -0.9670    0.0000 C   0  0  0  0  0  0  0  0  0  0  0  0
   -0.9358   -1.4704    0.0000 C   0  0  0  0  0  0  0  0  0  0  0  0
   -1.8038   -0.9738    0.0000 N   0  0  0  0  0  0  0  0  0  0  0  0
    0.0290    0.0280    0.0000 N   0  0  0  0  0  0  0  0  0  0  0  0
    1.0062    0.2398    0.0000 N   0  0  0  0  0  0  0  0  0  0  0  0
    1.4094    1.1548    0.0000 C   0  0  0  0  0  0  0  0  0  0  0  0
  1  2  1  0
  2  3  2  0
  3  4  1  0
  4  5  1  0
  5  6  1  0
  4  7  2  0
  7  8  1  0
  8  9  1  0
  8  2  1  0
M  END

> <chembl_id>
CHEMBL4560352

> <chembl_pref_name>
None

$$$$

     RDKit          2D

 10 10  0  0  0  0  0  0  0  0999 V2000
    1.1638    1.5412    0.0000 N   0  0  0  0  0  0  0  0  0  0  0  0
    0.9570    0.5628    0.0000 C   0  0  0  0  0  0  0  0  0  0  0  0
    1.6268   -0.1796    0.0000 N   0  0  0  0  0  0  0  0  0  0  0  0
    1.1278   -1.0462    0.0000 N   0  0  0  0  0  0  0  0  0  0  0  0
    0.1496   -0.8394    0.0000 C   0  0  0  0  0  0  0  0  0  0  0  0
    0.0438    0.1550    0.0000 C   0  0  0  0  0  0  0  0  0  0  0  0
   -0.8228    0.6540    0.0000 C   0  0  0  0  0  0  0  0  0  0  0  0
   -1.6880    0.1530    0.0000 C   0  0  0  0  0  0  0  0  0  0  0  0
   -2.5546    0.6520    0.0000 C   0  0  0  0  0  0  0  0  0  0  0  0
   -3.4200    0.1510    0.0000 O   0  0  0  0  0  0  0  0  0  0  0  0
  1  2  1  0
  2  3  1  0
  3  4  1  0
  4  5  2  0
  5  6  1  0
  6  7  1  0
  7  8  1  0
  8  9  1  0
  9 10  1  0
  6  2  2  0
M  END

> <chembl_id>
CHEMBL4546834

> <chembl_pref_name>
None

$$$$

     RDKit          2D

 11 11  0  0  0  0  0  0  0  0999 V2000
   -3.2701    0.6693    0.0000 C   0  0  0  0  0  0  0  0  0  0  0  0
   -3.2712   -0.1578    0.0000 C   0  0  0  0  0  0  0  0  0  0  0  0
   -2.5569   -0.5706    0.0000 N   0  0  0  0  0  0  0  0  0  0  0  0
   -1.8411   -0.1574    0.0000 C   0  0  0  0  0  0  0  0  0  0  0  0
   -1.8438    0.6727    0.0000 C   0  0  0  0  0  0  0  0  0  0  0  0
   -2.5586    1.0821    0.0000 C   0  0  0  0  0  0  0  0  0  0  0  0
   -1.1307    1.0877    0.0000 C   0  0  0  0  0  0  0  0  0  0  0  0
   -0.4149    0.6776    0.0000 C   0  0  0  0  0  0  0  0  0  0  0  0
   -0.4121   -0.1474    0.0000 C   0  0  0  0  0  0  0  0  0  0  0  0
    0.3037   -0.5575    0.0000 N   0  0  0  0  0  0  0  0  0  0  0  0
    0.3065   -1.3824    0.0000 C   0  0  0  0  0  0  0  0  0  0  0  0
  5  6  2  0
  6  1  1  0
  1  2  2  0
  5  7  1  0
  3  4  2  0
  7  8  2  0
  8  9  1  0
  4  5  1  0
  9 10  1  0
  2  3  1  0
 10 11  1  0
M  END

> <chembl_id>
CHEMBL438638

> <chembl_pref_name>
None

$$$$

     RDKit          2D

  8  8  0  0  0  0  0  0  0  0999 V2000
    2.4430    0.3956    0.0000 C   0  0  0  0  0  0  0  0  0  0  0  0
    1.4486    0.5012    0.0000 C   0  0  0  0  0  0  0  0  0  0  0  0
    0.9496    1.3678    0.0000 C   0  0  0  0  0  0  0  0  0  0  0  0
   -0.0286    1.1610    0.0000 S   0  0  0  0  0  0  0  0  0  0  0  0
   -0.1344    0.1666    0.0000 C   0  0  0  0  0  0  0  0  0  0  0  0
   -1.0010   -0.3324    0.0000 C   0  0  0  0  0  0  0  0  0  0  0  0
   -1.8662    0.1686    0.0000 N   0  0  0  0  0  0  0  0  0  0  0  0
    0.7788   -0.2412    0.0000 C   0  0  0  0  0  0  0  0  0  0  0  0
  1  2  1  0
  2  3  2  0
  3  4  1  0
  4  5  1  0
  5  6  1  0
  6  7  1  0
  5  8  2  0
  8  2  1  0
M  END

> <chembl_id>
CHEMBL4528770

> <chembl_pref_name>
None

$$$$

     RDKit          2D

 11 12  0  0  0  0  0  0  0  0999 V2000
    1.8476    0.8790    0.0000 C   0  0  0  0  0  0  0  0  0  0  0  0
    1.8412   -0.1210    0.0000 C   0  0  0  0  0  0  0  0  0  0  0  0
    0.9720   -0.6154    0.0000 N   0  0  0  0  0  0  0  0  0  0  0  0
    0.1092   -0.1098    0.0000 C   0  0  0  0  0  0  0  0  0  0  0  0
   -0.7600   -0.6044    0.0000 C   0  0  0  0  0  0  0  0  0  0  0  0
   -0.8708   -1.5982    0.0000 C   0  0  0  0  0  0  0  0  0  0  0  0
   -1.8504   -1.7998    0.0000 C   0  0  0  0  0  0  0  0  0  0  0  0
   -2.3448   -0.9306    0.0000 C   0  0  0  0  0  0  0  0  0  0  0  0
   -1.6710   -0.1918    0.0000 N   0  0  0  0  0  0  0  0  0  0  0  0
    0.1156    0.8900    0.0000 N   0  0  0  0  0  0  0  0  0  0  0  0
    0.9848    1.3844    0.0000 C   0  0  0  0  0  0  0  0  0  0  0  0
  1  2  2  0
  2  3  1  0
  3  4  2  0
  4  5  1  0
  5  6  1  0
  6  7  1  0
  7  8  1  0
  8  9  1  0
  4 10  1  0
 10 11  2  0
 11  1  1  0
  9  5  1  0
M  END

> <chembl_id>
CHEMBL4543661

> <chembl_pref_name>
None

$$$$

     RDKit          2D

  9  9  0  0  0  0  0  0  0  0999 V2000
    2.3959   -2.4380    0.0000 Cl  0  0  0  0  0  0  0  0  0  0  0  0
    0.9670    0.0370    0.0000 N   0  0  0  0  0  0  0  0  0  0  0  0
    1.6814   -1.2005    0.0000 C   0  0  0  0  0  0  0  0  0  0  0  0
    1.6814   -2.0255    0.0000 C   0  0  0  0  0  0  0  0  0  0  0  0
    0.9670   -0.7880    0.0000 C   0  0  0  0  0  0  0  0  0  0  0  0
    0.9670   -2.4380    0.0000 C   0  0  0  0  0  0  0  0  0  0  0  0
    0.2525   -1.2005    0.0000 C   0  0  0  0  0  0  0  0  0  0  0  0
    0.2525   -2.0255    0.0000 C   0  0  0  0  0  0  0  0  0  0  0  0
    2.3959   -0.7880    0.0000 C   0  0  0  0  0  0  0  0  0  0  0  0
  1  4  1  0
  2  5  1  0
  3  4  1  0
  3  5  2  0
  3  9  1  0
  4  6  2  0
  5  7  1  0
  6  8  1  0
  7  8  2  0
M  END

> <chembl_id>
CHEMBL1570069

> <chembl_pref_name>
None

$$$$

     RDKit          2D

 11 11  0  0  0  0  0  0  0  0999 V2000
   -1.1182   -0.8566    0.0000 N   0  0  0  0  0  0  0  0  0  0  0  0
    0.3107   -0.8566    0.0000 C   0  0  0  0  0  0  0  0  0  0  0  0
   -0.4037   -0.4441    0.0000 C   0  0  0  0  0  0  0  0  0  0  0  0
    0.3107   -1.6816    0.0000 C   0  0  0  0  0  0  0  0  0  0  0  0
    1.0252   -0.4441    0.0000 C   0  0  0  0  0  0  0  0  0  0  0  0
   -0.4037   -2.0941    0.0000 C   0  0  0  0  0  0  0  0  0  0  0  0
   -1.1182   -1.6816    0.0000 C   0  0  0  0  0  0  0  0  0  0  0  0
    1.7397   -0.8566    0.0000 C   0  0  0  0  0  0  0  0  0  0  0  0
    2.4542   -0.4441    0.0000 C   0  0  0  0  0  0  0  0  0  0  0  0
    3.1686   -0.8566    0.0000 C   0  0  0  0  0  0  0  0  0  0  0  0
    3.8831   -0.4441    0.0000 C   0  0  0  0  0  0  0  0  0  0  0  0
  1  3  2  0
  1  7  1  0
  2  3  1  0
  2  4  2  0
  2  5  1  0
  4  6  1  0
  5  8  1  0
  6  7  2  0
  8  9  1  0
  9 10  1  0
 10 11  1  0
M  END

> <chembl_id>
CHEMBL1423619

> <chembl_pref_name>
None

$$$$

     RDKit          2D

 11 12  0  0  0  0  0  0  0  0999 V2000
    4.2417   -7.8206    0.0000 C   0  0  0  0  0  0  0  0  0  0  0  0
    4.2405   -8.6466    0.0000 C   0  0  0  0  0  0  0  0  0  0  0  0
    4.9541   -9.0587    0.0000 C   0  0  0  0  0  0  0  0  0  0  0  0
    4.9523   -7.4084    0.0000 C   0  0  0  0  0  0  0  0  0  0  0  0
    5.6666   -7.8170    0.0000 C   0  0  0  0  0  0  0  0  0  0  0  0
    5.6700   -8.6486    0.0000 C   0  0  0  0  0  0  0  0  0  0  0  0
    6.3880   -9.0592    0.0000 N   0  0  0  0  0  0  0  0  0  0  0  0
    7.1072   -8.6427    0.0000 C   0  0  0  0  0  0  0  0  0  0  0  0
    7.1038   -7.8111    0.0000 N   0  0  0  0  0  0  0  0  0  0  0  0
    6.3812   -7.3958    0.0000 C   0  0  0  0  0  0  0  0  0  0  0  0
    7.8217   -9.0526    0.0000 O   0  0  0  0  0  0  0  0  0  0  0  0
  2  3  1  0
  3  6  2  0
  1  2  2  0
  5  4  2  0
  4  1  1  0
  5 10  1  0
  6  7  1  0
  7  8  1  0
  8  9  1  0
  9 10  1  0
  5  6  1  0
  8 11  2  0
M  END

> <chembl_id>
CHEMBL1209829

> <chembl_pref_name>
None

$$$$

     RDKit          2D

 10 10  0  0  0  0  0  0  0  0999 V2000
    2.6292   -1.1625    0.0000 C   0  0  0  0  0  0  0  0  0  0  0  0
    1.9125   -0.7542    0.0000 N   0  0  0  0  0  0  0  0  0  0  0  0
    1.2042   -3.6417    0.0000 N   0  0  0  0  0  0  0  0  0  0  0  0
    2.6292   -1.9875    0.0000 C   0  0  0  0  0  0  0  0  0  0  0  0
    3.3417   -0.7417    0.0000 N   0  0  0  0  0  0  0  0  0  0  0  0
    1.9167   -2.4042    0.0000 C   0  0  0  0  0  0  0  0  0  0  0  0
    1.9167   -3.2292    0.0000 C   0  0  0  0  0  0  0  0  0  0  0  0
    0.4917   -3.2292    0.0000 C   0  0  0  0  0  0  0  0  0  0  0  0
    1.2042   -1.9917    0.0000 C   0  0  0  0  0  0  0  0  0  0  0  0
    0.4917   -2.4042    0.0000 C   0  0  0  0  0  0  0  0  0  0  0  0
  2  1  2  0
  3  7  2  0
  4  1  1  0
  5  1  1  0
  6  4  1  0
  7  6  1  0
  8 10  2  0
  9  6  2  0
 10  9  1  0
  3  8  1  0
M  END

> <chembl_id>
CHEMBL142696

> <chembl_pref_name>
None

$$$$

     RDKit          2D

 10 10  0  0  0  0  0  0  0  0999 V2000
    0.6844    2.4484    0.0000 C   0  0  0  0  0  0  0  0  0  0  0  0
    0.6824    1.4484    0.0000 N   0  0  0  0  0  0  0  0  0  0  0  0
   -0.1846    0.9502    0.0000 C   0  0  0  0  0  0  0  0  0  0  0  0
   -1.0496    1.4518    0.0000 C   0  0  0  0  0  0  0  0  0  0  0  0
   -0.1868   -0.0498    0.0000 C   0  0  0  0  0  0  0  0  0  0  0  0
    0.6784   -0.5516    0.0000 C   0  0  0  0  0  0  0  0  0  0  0  0
    0.6762   -1.5516    0.0000 C   0  0  0  0  0  0  0  0  0  0  0  0
   -0.1908   -2.0498    0.0000 C   0  0  0  0  0  0  0  0  0  0  0  0
   -1.0558   -1.5480    0.0000 C   0  0  0  0  0  0  0  0  0  0  0  0
   -1.0538   -0.5480    0.0000 N   0  0  0  0  0  0  0  0  0  0  0  0
  1  2  1  0
  2  3  1  0
  3  4  1  0
  3  5  1  0
  5  6  2  0
  6  7  1  0
  7  8  2  0
  8  9  1  0
  9 10  2  0
 10  5  1  0
M  END

> <chembl_id>
CHEMBL4537832

> <chembl_pref_name>
None

$$$$

     RDKit          2D

  9  9  0  0  0  0  0  0  0  0999 V2000
    3.2473  -11.6213    0.0000 C   0  0  0  0  0  0  0  0  0  0  0  0
    2.8326  -12.3359    0.0000 C   0  0  0  0  0  0  0  0  0  0  0  0
    2.8326  -10.9066    0.0000 O   0  0  0  0  0  0  0  0  0  0  0  0
    4.0723  -11.6213    0.0000 C   0  0  0  0  0  0  0  0  0  0  0  0
    4.4825  -10.9066    0.0000 C   0  0  0  0  0  0  0  0  0  0  0  0
    5.3075  -10.9066    0.0000 C   0  0  0  0  0  0  0  0  0  0  0  0
    5.7222  -11.6213    0.0000 C   0  0  0  0  0  0  0  0  0  0  0  0
    5.3075  -12.3359    0.0000 C   0  0  0  0  0  0  0  0  0  0  0  0
    4.4825  -12.3359    0.0000 C   0  0  0  0  0  0  0  0  0  0  0  0
  1  2  1  0
  1  3  1  0
  4  5  1  0
  5  6  2  0
  6  7  1  0
  7  8  2  0
  8  9  1  0
  4  9  2  0
  1  4  1  0
M  END

> <chembl_id>
CHEMBL508917

> <chembl_pref_name>
PHENYL ETHANOL

$$$$

     RDKit          2D

 10 11  0  0  1  0  0  0  0  0999 V2000
    5.0501   -0.8419    0.0000 N   0  0  0  0  0  0  0  0  0  0  0  0
    4.0197   -1.4569    0.0000 C   0  0  0  0  0  0  0  0  0  0  0  0
    3.2676   -2.7548    0.0000 C   0  0  0  0  0  0  0  0  0  0  0  0
    2.5987   -1.5004    0.0000 C   0  0  0  0  0  0  0  0  0  0  0  0
    1.2990   -0.7500    0.0000 C   0  0  0  0  0  0  0  0  0  0  0  0
    1.2990    0.7500    0.0000 C   0  0  0  0  0  0  0  0  0  0  0  0
    0.0000    1.5000    0.0000 C   0  0  0  0  0  0  0  0  0  0  0  0
   -1.2990    0.7500    0.0000 C   0  0  0  0  0  0  0  0  0  0  0  0
   -1.2990   -0.7500    0.0000 C   0  0  0  0  0  0  0  0  0  0  0  0
    0.0000   -1.5000    0.0000 C   0  0  0  0  0  0  0  0  0  0  0  0
  2  1  1  6
  2  3  1  0
  3  4  1  0
  4  2  1  0
  4  5  1  0
  5  6  2  0
  6  7  1  0
  7  8  2  0
  8  9  1  0
  9 10  2  0
 10  5  1  0
M  END

> <chembl_id>
CHEMBL3682538

> <chembl_pref_name>
None

$$$$

     RDKit          2D

 10 10  0  0  0  0  0  0  0  0999 V2000
    4.1638    0.5263    0.0000 N   0  0  0  0  0  0  0  0  0  0  0  0
    3.9088   -0.2583    0.0000 N   0  0  0  0  0  0  0  0  0  0  0  0
    3.0838   -0.2583    0.0000 C   0  0  0  0  0  0  0  0  0  0  0  0
    2.8289    0.5263    0.0000 N   0  0  0  0  0  0  0  0  0  0  0  0
    3.4963    1.0113    0.0000 C   0  0  0  0  0  0  0  0  0  0  0  0
    3.4963    1.8363    0.0000 N   0  0  0  0  0  0  0  0  0  0  0  0
    2.5989   -0.9257    0.0000 C   0  0  0  0  0  0  0  0  0  0  0  0
    1.7784   -0.8395    0.0000 C   0  0  0  0  0  0  0  0  0  0  0  0
    1.2935   -1.5069    0.0000 O   0  0  0  0  0  0  0  0  0  0  0  0
    1.4429   -0.0858    0.0000 O   0  0  0  0  0  0  0  0  0  0  0  0
  5  1  1  0
  1  2  1  0
  5  6  1  0
  3  7  1  0
  2  3  2  0
  7  8  1  0
  3  4  1  0
  8  9  1  0
  4  5  2  0
  8 10  2  0
M  END

> <chembl_id>
CHEMBL463034

> <chembl_pref_name>
None

$$$$

     RDKit          2D

  9  9  0  0  0  0  0  0  0  0999 V2000
   10.7474  -21.4384    0.0000 C   0  0  0  0  0  0  0  0  0  0  0  0
   10.7461  -22.2648    0.0000 C   0  0  0  0  0  0  0  0  0  0  0  0
   11.4580  -22.6769    0.0000 C   0  0  0  0  0  0  0  0  0  0  0  0
   12.1761  -22.2642    0.0000 C   0  0  0  0  0  0  0  0  0  0  0  0
   12.1730  -21.4345    0.0000 C   0  0  0  0  0  0  0  0  0  0  0  0
   11.4560  -21.0263    0.0000 C   0  0  0  0  0  0  0  0  0  0  0  0
   11.4521  -20.2026    0.0000 O   0  0  0  0  0  0  0  0  0  0  0  0
   11.4566  -23.5006    0.0000 F   0  0  0  0  0  0  0  0  0  0  0  0
   12.8843  -21.0190    0.0000 F   0  0  0  0  0  0  0  0  0  0  0  0
  4  5  1  0
  2  3  1  0
  5  6  2  0
  6  1  1  0
  1  2  2  0
  6  7  1  0
  3  4  2  0
  3  8  1  0
  5  9  1  0
M  END

> <chembl_id>
CHEMBL395171

> <chembl_pref_name>
None

$$$$

     RDKit          2D

  6  6  0  0  0  0  0  0  0  0999 V2000
   -3.9664  -25.2397    0.0000 N   0  0  0  0  0  0  0  0  0  0  0  0
   -3.1415  -25.2397    0.0000 N   0  0  0  0  0  0  0  0  0  0  0  0
   -2.8847  -24.4557    0.0000 N   0  0  0  0  0  0  0  0  0  0  0  0
   -3.5539  -23.9689    0.0000 N   0  0  0  0  0  0  0  0  0  0  0  0
   -4.2189  -24.4557    0.0000 C   0  0  0  0  0  0  0  0  0  0  0  0
   -5.0036  -24.2011    0.0000 C   0  0  0  0  0  0  0  0  0  0  0  0
  2  3  2  0
  3  4  1  0
  4  5  1  0
  5  1  2  0
  1  2  1  0
  5  6  1  0
M  END

> <chembl_id>
CHEMBL477368

> <chembl_pref_name>
None

$$$$

     RDKit          2D

 11 11  0  0  0  0  0  0  0  0999 V2000
    0.4026    0.9675    0.0000 N   0  0  0  0  0  0  0  0  0  0  0  0
    1.1171   -0.2700    0.0000 N   0  0  0  0  0  0  0  0  0  0  0  0
   -0.3118   -1.9200    0.0000 N   0  0  0  0  0  0  0  0  0  0  0  0
   -0.3118   -0.2700    0.0000 C   0  0  0  0  0  0  0  0  0  0  0  0
    0.4026    0.1425    0.0000 C   0  0  0  0  0  0  0  0  0  0  0  0
   -1.0263    0.1425    0.0000 C   0  0  0  0  0  0  0  0  0  0  0  0
   -0.3118    1.3800    0.0000 C   0  0  0  0  0  0  0  0  0  0  0  0
   -1.0263    0.9675    0.0000 C   0  0  0  0  0  0  0  0  0  0  0  0
   -0.3118   -1.0950    0.0000 C   0  0  0  0  0  0  0  0  0  0  0  0
   -1.7408   -0.2700    0.0000 C   0  0  0  0  0  0  0  0  0  0  0  0
   -0.3118    2.2050    0.0000 C   0  0  0  0  0  0  0  0  0  0  0  0
  1  5  2  0
  1  7  1  0
  2  5  1  0
  3  9  3  0
  4  5  1  0
  4  6  2  0
  4  9  1  0
  6  8  1  0
  6 10  1  0
  7  8  2  0
  7 11  1  0
M  END

> <chembl_id>
CHEMBL1530544

> <chembl_pref_name>
None

$$$$

     RDKit          2D

  9  9  0  0  0  0  0  0  0  0999 V2000
   -3.9552  -13.0070    0.0000 N   0  0  0  0  0  0  0  0  0  0  0  0
   -3.9564  -13.8343    0.0000 C   0  0  0  0  0  0  0  0  0  0  0  0
   -3.2416  -14.2471    0.0000 N   0  0  0  0  0  0  0  0  0  0  0  0
   -2.5252  -13.8338    0.0000 C   0  0  0  0  0  0  0  0  0  0  0  0
   -2.5281  -13.0034    0.0000 C   0  0  0  0  0  0  0  0  0  0  0  0
   -3.2434  -12.5943    0.0000 C   0  0  0  0  0  0  0  0  0  0  0  0
   -1.8152  -12.5883    0.0000 N   0  0  0  0  0  0  0  0  0  0  0  0
   -4.6711  -14.2462    0.0000 O   0  0  0  0  0  0  0  0  0  0  0  0
   -3.2459  -11.7693    0.0000 N   0  0  0  0  0  0  0  0  0  0  0  0
  4  5  2  0
  2  3  1  0
  5  6  1  0
  6  1  2  0
  1  2  1  0
  5  7  1  0
  3  4  1  0
  2  8  2  0
  6  9  1  0
M  END

> <chembl_id>
CHEMBL2151971

> <chembl_pref_name>
None

$$$$

     RDKit          2D

  8  8  0  0  0  0  0  0  0  0999 V2000
    1.4167   -5.8667    0.0000 N   0  0  0  0  0  0  0  0  0  0  0  0
    0.9042   -5.5667    0.0000 C   0  0  0  0  0  0  0  0  0  0  0  0
    1.9417   -5.5667    0.0000 C   0  0  0  0  0  0  0  0  0  0  0  0
    1.9417   -4.9667    0.0000 C   0  0  0  0  0  0  0  0  0  0  0  0
    0.9042   -4.9667    0.0000 C   0  0  0  0  0  0  0  0  0  0  0  0
    1.4167   -4.6667    0.0000 C   0  0  0  0  0  0  0  0  0  0  0  0
    2.4542   -4.6625    0.0000 O   0  0  0  0  0  0  0  0  0  0  0  0
    0.3792   -5.8667    0.0000 C   0  0  0  0  0  0  0  0  0  0  0  0
  2  1  1  0
  3  1  2  0
  4  3  1  0
  5  2  2  0
  6  4  2  0
  7  4  1  0
  8  2  1  0
  6  5  1  0
M  END

> <chembl_id>
CHEMBL134979

> <chembl_pref_name>
None

$$$$

     RDKit          2D

  9  9  0  0  0  0  0  0  0  0999 V2000
    1.1319    0.6969    0.0000 O   0  0  0  0  0  0  0  0  0  0  0  0
    0.4175    0.2844    0.0000 C   0  0  0  0  0  0  0  0  0  0  0  0
    0.4175   -0.5406    0.0000 C   0  0  0  0  0  0  0  0  0  0  0  0
    1.1319   -0.9531    0.0000 F   0  0  0  0  0  0  0  0  0  0  0  0
   -0.2970   -0.9531    0.0000 C   0  0  0  0  0  0  0  0  0  0  0  0
   -1.0115   -0.5406    0.0000 C   0  0  0  0  0  0  0  0  0  0  0  0
   -1.0115    0.2844    0.0000 C   0  0  0  0  0  0  0  0  0  0  0  0
   -0.2970    0.6969    0.0000 C   0  0  0  0  0  0  0  0  0  0  0  0
   -0.2970    1.5219    0.0000 O   0  0  0  0  0  0  0  0  0  0  0  0
  2  1  1  0
  2  3  2  0
  2  8  1  0
  3  4  1  0
  3  5  1  0
  5  6  2  0
  7  6  1  0
  8  7  2  0
  8  9  1  0
M  END

> <chembl_id>
CHEMBL1230120

> <chembl_pref_name>
None

$$$$

     RDKit          2D

 11 12  0  0  0  0  0  0  0  0999 V2000
    9.4307  -10.6569    0.0000 C   0  0  0  0  0  0  0  0  0  0  0  0
    9.4296  -11.4812    0.0000 C   0  0  0  0  0  0  0  0  0  0  0  0
   10.1418  -11.8926    0.0000 C   0  0  0  0  0  0  0  0  0  0  0  0
   10.1401  -10.2456    0.0000 C   0  0  0  0  0  0  0  0  0  0  0  0
   10.8529  -10.6533    0.0000 C   0  0  0  0  0  0  0  0  0  0  0  0
   10.8577  -11.4812    0.0000 C   0  0  0  0  0  0  0  0  0  0  0  0
   11.6467  -11.7325    0.0000 C   0  0  0  0  0  0  0  0  0  0  0  0
   12.1295  -11.0598    0.0000 C   0  0  0  0  0  0  0  0  0  0  0  0
   11.6389  -10.3929    0.0000 N   0  0  0  0  0  0  0  0  0  0  0  0
   12.9515  -11.0549    0.0000 O   0  0  0  0  0  0  0  0  0  0  0  0
   10.1376   -9.4236    0.0000 O   0  0  0  0  0  0  0  0  0  0  0  0
  1  2  2  0
  2  3  1  0
  3  6  2  0
  5  4  2  0
  4  1  1  0
  5  6  1  0
  6  7  1  0
  7  8  1  0
  8  9  1  0
  9  5  1  0
  8 10  2  0
  4 11  1  0
M  END

> <chembl_id>
CHEMBL3218381

> <chembl_pref_name>
None

$$$$

     RDKit          2D

 10 10  0  0  0  0  0  0  0  0999 V2000
   -3.2425   -6.6525    0.0000 N   0  0  0  0  0  0  0  0  0  0  0  0
   -3.6550   -5.9380    0.0000 C   0  0  0  0  0  0  0  0  0  0  0  0
   -3.1030   -5.3249    0.0000 N   0  0  0  0  0  0  0  0  0  0  0  0
   -2.3493   -5.6605    0.0000 N   0  0  0  0  0  0  0  0  0  0  0  0
   -2.4355   -6.4810    0.0000 C   0  0  0  0  0  0  0  0  0  0  0  0
   -1.6348   -5.2480    0.0000 C   0  0  0  0  0  0  0  0  0  0  0  0
   -0.9204   -5.6605    0.0000 C   0  0  0  0  0  0  0  0  0  0  0  0
   -0.2059   -5.2480    0.0000 C   0  0  0  0  0  0  0  0  0  0  0  0
    0.5086   -5.6605    0.0000 C   0  0  0  0  0  0  0  0  0  0  0  0
    1.2230   -5.2480    0.0000 C   0  0  0  0  0  0  0  0  0  0  0  0
  5  1  2  0
  1  2  1  0
  4  6  1  0
  6  7  1  0
  2  3  2  0
  7  8  1  0
  3  4  1  0
  8  9  1  0
  4  5  1  0
  9 10  1  0
M  END

> <chembl_id>
CHEMBL538933

> <chembl_pref_name>
None

$$$$

     RDKit          2D

 11 12  0  0  0  0  0  0  0  0999 V2000
    2.8292   -2.6667    0.0000 C   0  0  0  0  0  0  0  0  0  0  0  0
    4.2625   -2.6667    0.0000 N   0  0  0  0  0  0  0  0  0  0  0  0
    2.1167   -3.0792    0.0000 C   0  0  0  0  0  0  0  0  0  0  0  0
    2.8292   -1.8417    0.0000 C   0  0  0  0  0  0  0  0  0  0  0  0
    3.5417   -3.0792    0.0000 C   0  0  0  0  0  0  0  0  0  0  0  0
    2.1167   -3.9042    0.0000 O   0  0  0  0  0  0  0  0  0  0  0  0
    1.4042   -1.8417    0.0000 C   0  0  0  0  0  0  0  0  0  0  0  0
    4.2625   -1.8417    0.0000 C   0  0  0  0  0  0  0  0  0  0  0  0
    2.1167   -1.4292    0.0000 C   0  0  0  0  0  0  0  0  0  0  0  0
    1.4042   -2.6667    0.0000 C   0  0  0  0  0  0  0  0  0  0  0  0
    3.5417   -1.4250    0.0000 C   0  0  0  0  0  0  0  0  0  0  0  0
  2  5  1  0
  3  1  2  0
  4  1  1  0
  5  1  1  0
  6  3  1  0
  7  9  1  0
  8  2  1  0
  9  4  2  0
 10  3  1  0
 11  4  1  0
  8 11  1  0
 10  7  2  0
M  END

> <chembl_id>
CHEMBL69312

> <chembl_pref_name>
None

$$$$

     RDKit          2D

 10 10  0  0  0  0  0  0  0  0999 V2000
    1.9152    0.6812    0.0000 C   0  0  0  0  0  0  0  0  0  0  0  0
    1.0496    1.1820    0.0000 N   0  0  0  0  0  0  0  0  0  0  0  0
    1.0504    2.1820    0.0000 C   0  0  0  0  0  0  0  0  0  0  0  0
    0.1832    0.6826    0.0000 C   0  0  0  0  0  0  0  0  0  0  0  0
    0.1824   -0.3174    0.0000 C   0  0  0  0  0  0  0  0  0  0  0  0
   -0.6840   -0.8166    0.0000 C   0  0  0  0  0  0  0  0  0  0  0  0
   -1.5496   -0.3160    0.0000 C   0  0  0  0  0  0  0  0  0  0  0  0
   -2.4160   -0.8152    0.0000 N   0  0  0  0  0  0  0  0  0  0  0  0
   -1.5488    0.6840    0.0000 N   0  0  0  0  0  0  0  0  0  0  0  0
   -0.6824    1.1834    0.0000 C   0  0  0  0  0  0  0  0  0  0  0  0
  1  2  1  0
  2  3  1  0
  2  4  1  0
  4  5  2  0
  5  6  1  0
  6  7  2  0
  7  8  1  0
  7  9  1  0
  9 10  2  0
 10  4  1  0
M  END

> <chembl_id>
CHEMBL4591796

> <chembl_pref_name>
None

$$$$

     RDKit          2D

 10 10  0  0  0  0  0  0  0  0999 V2000
   18.7735  -21.1882    0.0000 O   0  0  0  0  0  0  0  0  0  0  0  0
   18.0590  -20.7757    0.0000 C   0  0  0  0  0  0  0  0  0  0  0  0
   17.3445  -21.1882    0.0000 C   0  0  0  0  0  0  0  0  0  0  0  0
   16.6301  -20.7757    0.0000 C   0  0  0  0  0  0  0  0  0  0  0  0
   15.9156  -21.1882    0.0000 O   0  0  0  0  0  0  0  0  0  0  0  0
   16.6301  -19.9507    0.0000 C   0  0  0  0  0  0  0  0  0  0  0  0
   17.3445  -19.5382    0.0000 C   0  0  0  0  0  0  0  0  0  0  0  0
   18.0590  -19.9507    0.0000 C   0  0  0  0  0  0  0  0  0  0  0  0
   18.7735  -19.5382    0.0000 C   0  0  0  0  0  0  0  0  0  0  0  0
   15.9156  -19.5382    0.0000 C   0  0  0  0  0  0  0  0  0  0  0  0
  1  2  1  0
  2  3  1  0
  3  4  2  0
  4  5  1  0
  4  6  1  0
  6  7  2  0
  7  8  1  0
  2  8  2  0
  8  9  1  0
  6 10  1  0
M  END

> <chembl_id>
CHEMBL2332782

> <chembl_pref_name>
None

$$$$

     RDKit          2D

  9  9  0  0  0  0  0  0  0  0999 V2000
   15.3427  -20.7752    0.0000 O   0  0  0  0  0  0  0  0  0  0  0  0
   14.5177  -20.7752    0.0000 C   0  0  0  0  0  0  0  0  0  0  0  0
   14.1052  -21.4897    0.0000 C   0  0  0  0  0  0  0  0  0  0  0  0
   13.2802  -21.4897    0.0000 C   0  0  0  0  0  0  0  0  0  0  0  0
   12.8677  -22.2042    0.0000 O   0  0  0  0  0  0  0  0  0  0  0  0
   12.8677  -20.7752    0.0000 C   0  0  0  0  0  0  0  0  0  0  0  0
   13.2802  -20.0608    0.0000 C   0  0  0  0  0  0  0  0  0  0  0  0
   14.1052  -20.0608    0.0000 C   0  0  0  0  0  0  0  0  0  0  0  0
   12.8677  -19.3463    0.0000 F   0  0  0  0  0  0  0  0  0  0  0  0
  1  2  1  0
  2  3  1  0
  3  4  2  0
  4  5  1  0
  4  6  1  0
  6  7  2  0
  7  8  1  0
  2  8  2  0
  7  9  1  0
M  END

> <chembl_id>
CHEMBL2332778

> <chembl_pref_name>
None

$$$$

     RDKit          2D

 10 10  0  0  0  0  0  0  0  0999 V2000
    2.5074   -0.0495    0.0000 O   0  0  0  0  0  0  0  0  0  0  0  0
    0.3640    0.3630    0.0000 N   0  0  0  0  0  0  0  0  0  0  0  0
    1.7929   -1.2870    0.0000 C   0  0  0  0  0  0  0  0  0  0  0  0
    1.7929   -0.4620    0.0000 C   0  0  0  0  0  0  0  0  0  0  0  0
    2.5074   -1.6995    0.0000 C   0  0  0  0  0  0  0  0  0  0  0  0
    1.0784   -1.6995    0.0000 C   0  0  0  0  0  0  0  0  0  0  0  0
    1.0784   -0.0495    0.0000 C   0  0  0  0  0  0  0  0  0  0  0  0
    2.5074   -2.5245    0.0000 C   0  0  0  0  0  0  0  0  0  0  0  0
    1.0784   -2.5245    0.0000 C   0  0  0  0  0  0  0  0  0  0  0  0
    1.7929   -2.9370    0.0000 C   0  0  0  0  0  0  0  0  0  0  0  0
  1  4  1  0
  2  7  3  0
  3  4  1  0
  3  5  2  0
  3  6  1  0
  4  7  1  0
  5  8  1  0
  6  9  2  0
  8 10  2  0
  9 10  1  0
M  END

> <chembl_id>
CHEMBL1393845

> <chembl_pref_name>
None

$$$$

     RDKit          2D

  8  8  0  0  0  0  0  0  0  0999 V2000
    5.0375   -3.7625    0.0000 C   0  0  0  0  0  0  0  0  0  0  0  0
    5.0417   -4.5792    0.0000 C   0  0  0  0  0  0  0  0  0  0  0  0
    5.7625   -4.9792    0.0000 N   0  0  0  0  0  0  0  0  0  0  0  0
    5.7375   -3.3417    0.0000 C   0  0  0  0  0  0  0  0  0  0  0  0
    4.3375   -5.0000    0.0000 N   0  0  0  0  0  0  0  0  0  0  0  0
    6.4667   -4.5667    0.0000 C   0  0  0  0  0  0  0  0  0  0  0  0
    5.7250   -2.5167    0.0000 N   0  0  0  0  0  0  0  0  0  0  0  0
    6.4625   -3.7417    0.0000 C   0  0  0  0  0  0  0  0  0  0  0  0
  2  1  1  0
  3  2  2  0
  4  1  2  0
  5  2  1  0
  6  8  2  0
  7  4  1  0
  8  4  1  0
  3  6  1  0
M  END

> <chembl_id>
CHEMBL338573

> <chembl_pref_name>
None

$$$$

     RDKit          2D

  9  9  0  0  0  0  0  0  0  0999 V2000
    4.7042   -2.9167    0.0000 C   0  0  0  0  0  0  0  0  0  0  0  0
    4.7042   -2.0875    0.0000 C   0  0  0  0  0  0  0  0  0  0  0  0
    5.4167   -3.3292    0.0000 N   0  0  0  0  0  0  0  0  0  0  0  0
    5.4167   -1.6750    0.0000 C   0  0  0  0  0  0  0  0  0  0  0  0
    3.9875   -3.3292    0.0000 N   0  0  0  0  0  0  0  0  0  0  0  0
    6.1292   -2.9167    0.0000 C   0  0  0  0  0  0  0  0  0  0  0  0
    3.9917   -1.6792    0.0000 C   0  0  0  0  0  0  0  0  0  0  0  0
    6.1292   -2.0875    0.0000 C   0  0  0  0  0  0  0  0  0  0  0  0
    5.4125   -0.8500    0.0000 C   0  0  0  0  0  0  0  0  0  0  0  0
  2  1  2  0
  3  1  1  0
  4  2  1  0
  5  1  1  0
  6  3  2  0
  7  2  1  0
  8  6  1  0
  9  4  1  0
  8  4  2  0
M  END

> <chembl_id>
CHEMBL61939

> <chembl_pref_name>
None

$$$$

     RDKit          2D

 11 12  0  0  0  0  0  0  0  0999 V2000
    4.3542   -4.4917    0.0000 C   0  0  0  0  0  0  0  0  0  0  0  0
    4.3500   -5.3167    0.0000 C   0  0  0  0  0  0  0  0  0  0  0  0
    5.7792   -4.5000    0.0000 N   0  0  0  0  0  0  0  0  0  0  0  0
    3.6417   -4.0792    0.0000 C   0  0  0  0  0  0  0  0  0  0  0  0
    3.6417   -5.7292    0.0000 C   0  0  0  0  0  0  0  0  0  0  0  0
    5.0625   -5.7292    0.0000 N   0  0  0  0  0  0  0  0  0  0  0  0
    5.7792   -5.3250    0.0000 C   0  0  0  0  0  0  0  0  0  0  0  0
    2.9292   -5.3167    0.0000 C   0  0  0  0  0  0  0  0  0  0  0  0
    2.9292   -4.4917    0.0000 C   0  0  0  0  0  0  0  0  0  0  0  0
    3.6417   -6.5542    0.0000 O   0  0  0  0  0  0  0  0  0  0  0  0
    3.6417   -3.2542    0.0000 O   0  0  0  0  0  0  0  0  0  0  0  0
  2  1  2  0
  3  1  1  0
  4  1  1  0
  5  2  1  0
  6  2  1  0
  7  3  2  0
  8  9  2  0
  9  4  1  0
 10  5  2  0
 11  4  2  0
  6  7  1  0
  8  5  1  0
M  END

> <chembl_id>
CHEMBL314906

> <chembl_pref_name>
None

$$$$

     RDKit          2D

  9  9  0  0  0  0  0  0  0  0999 V2000
    1.0520   -2.8942    0.0000 N   0  0  0  0  0  0  0  0  0  0  0  0
    0.1850   -2.3960    0.0000 C   0  0  0  0  0  0  0  0  0  0  0  0
    0.1830   -1.3960    0.0000 C   0  0  0  0  0  0  0  0  0  0  0  0
   -0.6840   -0.8976    0.0000 C   0  0  0  0  0  0  0  0  0  0  0  0
   -0.6860    0.1022    0.0000 C   0  0  0  0  0  0  0  0  0  0  0  0
    0.1790    0.6040    0.0000 C   0  0  0  0  0  0  0  0  0  0  0  0
    0.1770    1.6040    0.0000 N   0  0  0  0  0  0  0  0  0  0  0  0
    1.0460    0.1058    0.0000 N   0  0  0  0  0  0  0  0  0  0  0  0
    1.0480   -0.8942    0.0000 C   0  0  0  0  0  0  0  0  0  0  0  0
  1  2  1  0
  2  3  1  0
  3  4  2  0
  4  5  1  0
  5  6  2  0
  6  7  1  0
  6  8  1  0
  8  9  2  0
  9  3  1  0
M  END

> <chembl_id>
CHEMBL4538383

> <chembl_pref_name>
None

$$$$

     RDKit          2D

  8  8  0  0  0  0  0  0  0  0999 V2000
    3.4497  -18.9572    0.0000 C   0  0  0  0  0  0  0  0  0  0  0  0
    4.2498  -18.7562    0.0000 C   0  0  0  0  0  0  0  0  0  0  0  0
    4.3079  -17.9332    0.0000 C   0  0  0  0  0  0  0  0  0  0  0  0
    3.5402  -17.6241    0.0000 S   0  0  0  0  0  0  0  0  0  0  0  0
    3.0138  -18.2582    0.0000 C   0  0  0  0  0  0  0  0  0  0  0  0
    5.0074  -17.4958    0.0000 C   0  0  0  0  0  0  0  0  0  0  0  0
    5.7360  -17.8829    0.0000 C   0  0  0  0  0  0  0  0  0  0  0  0
    6.4355  -17.4455    0.0000 N   0  0  0  0  0  0  0  0  0  0  0  0
  3  4  1  0
  4  5  1  0
  5  1  2  0
  1  2  1  0
  3  6  1  0
  6  7  1  0
  2  3  2  0
  7  8  1  0
M  END

> <chembl_id>
CHEMBL252803

> <chembl_pref_name>
None

$$$$

     RDKit          2D

  9  9  0  0  0  0  0  0  0  0999 V2000
   -3.5830    0.5122    0.0000 C   0  0  0  0  0  0  0  0  0  0  0  0
   -2.7164    0.0132    0.0000 N   0  0  0  0  0  0  0  0  0  0  0  0
   -1.8512    0.5142    0.0000 C   0  0  0  0  0  0  0  0  0  0  0  0
   -0.9846    0.0152    0.0000 C   0  0  0  0  0  0  0  0  0  0  0  0
   -0.8788   -0.9790    0.0000 N   0  0  0  0  0  0  0  0  0  0  0  0
    0.0994   -1.1860    0.0000 N   0  0  0  0  0  0  0  0  0  0  0  0
    0.5984   -0.3194    0.0000 C   0  0  0  0  0  0  0  0  0  0  0  0
   -0.0714    0.4230    0.0000 N   0  0  0  0  0  0  0  0  0  0  0  0
    0.1354    1.4014    0.0000 C   0  0  0  0  0  0  0  0  0  0  0  0
  1  2  1  0
  2  3  1  0
  3  4  1  0
  4  5  2  0
  5  6  1  0
  6  7  2  0
  7  8  1  0
  8  9  1  0
  8  4  1  0
M  END

> <chembl_id>
CHEMBL4529453

> <chembl_pref_name>
None

$$$$

     RDKit          2D

 11 13  0  0  0  0  0  0  0  0999 V2000
   -4.8502   -2.7905    0.0000 C   0  0  0  0  0  0  0  0  0  0  0  0
   -4.7988   -1.9979    0.0000 C   0  0  0  0  0  0  0  0  0  0  0  0
   -4.3971   -1.2844    0.0000 C   0  0  0  0  0  0  0  0  0  0  0  0
   -4.2908   -2.0690    0.0000 C   0  0  0  0  0  0  0  0  0  0  0  0
   -4.9172   -0.5836    0.0000 N   0  0  0  0  0  0  0  0  0  0  0  0
   -3.4311   -1.3654    0.0000 C   0  0  0  0  0  0  0  0  0  0  0  0
   -3.4294   -2.0925    0.0000 C   0  0  0  0  0  0  0  0  0  0  0  0
   -2.7220   -2.6013    0.0000 N   0  0  0  0  0  0  0  0  0  0  0  0
   -2.0053   -2.1895    0.0000 C   0  0  0  0  0  0  0  0  0  0  0  0
   -2.0084   -1.3614    0.0000 C   0  0  0  0  0  0  0  0  0  0  0  0
   -2.7240   -0.9541    0.0000 C   0  0  0  0  0  0  0  0  0  0  0  0
  4  5  1  0
  3  5  1  0
  3  6  1  0
  6  7  2  0
  7  4  1  0
  7  8  1  0
  1  2  1  0
  8  9  2  0
  2  3  1  0
  9 10  1  0
  1  4  1  0
 10 11  2  0
 11  6  1  0
M  END

> <chembl_id>
CHEMBL443581

> <chembl_pref_name>
None

$$$$

     RDKit          2D

 10 11  0  0  0  0  0  0  0  0999 V2000
    1.4297   -1.2375    0.0000 C   0  0  0  0  0  0  0  0  0  0  0  0
    1.4297   -0.4125    0.0000 C   0  0  0  0  0  0  0  0  0  0  0  0
    0.7153   -1.6500    0.0000 C   0  0  0  0  0  0  0  0  0  0  0  0
    0.7153    0.0000    0.0000 C   0  0  0  0  0  0  0  0  0  0  0  0
    2.1442   -1.6500    0.0000 C   0  0  0  0  0  0  0  0  0  0  0  0
    2.1442    0.0000    0.0000 C   0  0  0  0  0  0  0  0  0  0  0  0
    0.0008   -1.2375    0.0000 C   0  0  0  0  0  0  0  0  0  0  0  0
    0.0008   -0.4125    0.0000 C   0  0  0  0  0  0  0  0  0  0  0  0
    2.8587   -1.2375    0.0000 C   0  0  0  0  0  0  0  0  0  0  0  0
    2.8587   -0.4125    0.0000 C   0  0  0  0  0  0  0  0  0  0  0  0
  1  2  2  0
  1  3  1  0
  1  5  1  0
  2  4  1  0
  2  6  1  0
  3  7  2  0
  4  8  2  0
  5  9  1  0
  6 10  1  0
  7  8  1  0
  9 10  1  0
M  END

> <chembl_id>
CHEMBL1575635

> <chembl_pref_name>
None

$$$$

     RDKit          2D

  9  9  0  0  0  0  0  0  0  0999 V2000
    0.2438    2.1756    0.0000 C   0  0  0  0  0  0  0  0  0  0  0  0
   -0.6232    1.6774    0.0000 N   0  0  0  0  0  0  0  0  0  0  0  0
   -0.6252    0.6774    0.0000 C   0  0  0  0  0  0  0  0  0  0  0  0
    0.2398    0.1756    0.0000 N   0  0  0  0  0  0  0  0  0  0  0  0
    0.2378   -0.8244    0.0000 C   0  0  0  0  0  0  0  0  0  0  0  0
   -0.6292   -1.3226    0.0000 C   0  0  0  0  0  0  0  0  0  0  0  0
   -1.4942   -0.8208    0.0000 C   0  0  0  0  0  0  0  0  0  0  0  0
   -1.4922    0.1790    0.0000 C   0  0  0  0  0  0  0  0  0  0  0  0
   -2.3572    0.6808    0.0000 F   0  0  0  0  0  0  0  0  0  0  0  0
  1  2  1  0
  2  3  1  0
  3  4  2  0
  4  5  1  0
  5  6  2  0
  6  7  1  0
  7  8  2  0
  8  9  1  0
  8  3  1  0
M  END

> <chembl_id>
CHEMBL4552031

> <chembl_pref_name>
None

$$$$

     RDKit          2D

  9  9  0  0  0  0  0  0  0  0999 V2000
    4.9636  -18.9192    0.0000 C   0  0  0  0  0  0  0  0  0  0  0  0
    4.9625  -19.7387    0.0000 N   0  0  0  0  0  0  0  0  0  0  0  0
    5.6705  -20.1477    0.0000 C   0  0  0  0  0  0  0  0  0  0  0  0
    6.3802  -19.7382    0.0000 C   0  0  0  0  0  0  0  0  0  0  0  0
    6.3774  -18.9156    0.0000 C   0  0  0  0  0  0  0  0  0  0  0  0
    5.6687  -18.5103    0.0000 C   0  0  0  0  0  0  0  0  0  0  0  0
    7.0835  -18.5043    0.0000 C   0  0  0  0  0  0  0  0  0  0  0  0
    7.7928  -18.9102    0.0000 C   0  0  0  0  0  0  0  0  0  0  0  0
    8.4989  -18.4990    0.0000 O   0  0  0  0  0  0  0  0  0  0  0  0
  1  2  2  0
  2  3  1  0
  3  4  2  0
  4  5  1  0
  5  6  2  0
  6  1  1  0
  5  7  1  0
  7  8  1  0
  8  9  1  0
M  END

> <chembl_id>
CHEMBL2251609

> <chembl_pref_name>
4-(2-HYDROXYETHYL)PYRIDINE

$$$$

     RDKit          2D

  8  8  0  0  0  0  0  0  0  0999 V2000
    5.4241   -0.0870    0.0000 O   0  0  0  0  0  0  0  0  0  0  0  0
    4.0422   -1.8094    0.0000 N   0  0  0  0  0  0  0  0  0  0  0  0
    4.7096   -1.3245    0.0000 C   0  0  0  0  0  0  0  0  0  0  0  0
    4.7096   -0.4995    0.0000 C   0  0  0  0  0  0  0  0  0  0  0  0
    5.3771   -1.8094    0.0000 C   0  0  0  0  0  0  0  0  0  0  0  0
    4.2971   -2.5940    0.0000 C   0  0  0  0  0  0  0  0  0  0  0  0
    5.1221   -2.5940    0.0000 C   0  0  0  0  0  0  0  0  0  0  0  0
    3.9952   -0.0870    0.0000 C   0  0  0  0  0  0  0  0  0  0  0  0
  1  4  2  0
  2  3  1  0
  2  6  1  0
  3  4  1  0
  3  5  2  0
  4  8  1  0
  5  7  1  0
  6  7  2  0
M  END

> <chembl_id>
CHEMBL1414126

> <chembl_pref_name>
2-ACETYLPYRROLE

$$$$

     RDKit          2D

  9  9  0  0  0  0  0  0  0  0999 V2000
    2.7750   -0.1252    0.0000 C   0  0  0  0  0  0  0  0  0  0  0  0
    1.9096    0.3758    0.0000 C   0  0  0  0  0  0  0  0  0  0  0  0
    1.9110    1.3758    0.0000 O   0  0  0  0  0  0  0  0  0  0  0  0
    1.0432   -0.1232    0.0000 C   0  0  0  0  0  0  0  0  0  0  0  0
    0.9374   -1.1176    0.0000 C   0  0  0  0  0  0  0  0  0  0  0  0
   -0.0410   -1.3244    0.0000 S   0  0  0  0  0  0  0  0  0  0  0  0
   -0.5400   -0.4578    0.0000 C   0  0  0  0  0  0  0  0  0  0  0  0
   -1.5342   -0.3522    0.0000 C   0  0  0  0  0  0  0  0  0  0  0  0
    0.1300    0.2844    0.0000 C   0  0  0  0  0  0  0  0  0  0  0  0
  1  2  1  0
  2  3  2  0
  2  4  1  0
  4  5  2  0
  5  6  1  0
  6  7  1  0
  7  8  1  0
  7  9  2  0
  9  4  1  0
M  END

> <chembl_id>
CHEMBL4538442

> <chembl_pref_name>
None

$$$$

     RDKit          2D

  9 10  0  0  0  0  0  0  0  0999 V2000
   -0.1333  -10.9633    0.0000 C   0  0  0  0  0  0  0  0  0  0  0  0
    0.5761  -10.5564    0.0000 N   0  0  0  0  0  0  0  0  0  0  0  0
    0.5761   -9.7345    0.0000 C   0  0  0  0  0  0  0  0  0  0  0  0
   -0.1333   -9.3194    0.0000 C   0  0  0  0  0  0  0  0  0  0  0  0
   -0.8427  -10.5564    0.0000 C   0  0  0  0  0  0  0  0  0  0  0  0
   -0.8472   -9.7300    0.0000 C   0  0  0  0  0  0  0  0  0  0  0  0
   -1.6347   -9.4789    0.0000 S   0  0  0  0  0  0  0  0  0  0  0  0
   -2.1168  -10.1502    0.0000 C   0  0  0  0  0  0  0  0  0  0  0  0
   -1.6273  -10.8161    0.0000 C   0  0  0  0  0  0  0  0  0  0  0  0
  3  4  1  0
  5  6  2  0
  6  4  1  0
  5  1  1  0
  1  2  1  0
  2  3  1  0
  6  7  1  0
  7  8  1  0
  8  9  2  0
  9  5  1  0
M  END

> <chembl_id>
CHEMBL1526

> <chembl_pref_name>
None

$$$$

     RDKit          2D

  8  8  0  0  0  0  0  0  0  0999 V2000
   -2.8662    0.1686    0.0000 N   0  0  0  0  0  0  0  0  0  0  0  0
   -2.0010   -0.3324    0.0000 C   0  0  0  0  0  0  0  0  0  0  0  0
   -1.1344    0.1666    0.0000 C   0  0  0  0  0  0  0  0  0  0  0  0
   -1.0286    1.1610    0.0000 N   0  0  0  0  0  0  0  0  0  0  0  0
   -0.0504    1.3678    0.0000 N   0  0  0  0  0  0  0  0  0  0  0  0
    0.4486    0.5012    0.0000 C   0  0  0  0  0  0  0  0  0  0  0  0
    1.4430    0.3956    0.0000 N   0  0  0  0  0  0  0  0  0  0  0  0
   -0.2212   -0.2412    0.0000 O   0  0  0  0  0  0  0  0  0  0  0  0
  1  2  1  0
  2  3  1  0
  3  4  2  0
  4  5  1  0
  5  6  2  0
  6  7  1  0
  6  8  1  0
  8  3  1  0
M  END

> <chembl_id>
CHEMBL4586833

> <chembl_pref_name>
None

$$$$

     RDKit          2D

  9  9  0  0  0  0  0  0  0  0999 V2000
    1.1184   -0.5520    0.0000 C   0  0  0  0  0  0  0  0  0  0  0  0
    0.2534   -0.0504    0.0000 C   0  0  0  0  0  0  0  0  0  0  0  0
   -0.6136   -0.5486    0.0000 C   0  0  0  0  0  0  0  0  0  0  0  0
   -1.4786   -0.0470    0.0000 C   0  0  0  0  0  0  0  0  0  0  0  0
   -1.4766    0.9530    0.0000 C   0  0  0  0  0  0  0  0  0  0  0  0
   -2.3416    1.4548    0.0000 N   0  0  0  0  0  0  0  0  0  0  0  0
   -0.6096    1.4514    0.0000 C   0  0  0  0  0  0  0  0  0  0  0  0
   -0.6076    2.4512    0.0000 C   0  0  0  0  0  0  0  0  0  0  0  0
    0.2554    0.9496    0.0000 N   0  0  0  0  0  0  0  0  0  0  0  0
  1  2  1  0
  2  3  2  0
  3  4  1  0
  4  5  2  0
  5  6  1  0
  5  7  1  0
  7  8  1  0
  7  9  2  0
  9  2  1  0
M  END

> <chembl_id>
CHEMBL4539633

> <chembl_pref_name>
None

$$$$

     RDKit          2D

 11 11  0  0  0  0  0  0  0  0999 V2000
   -2.1889   -0.6497    0.0000 C   0  0  0  0  0  0  0  0  0  0  0  0
   -1.4744   -1.0622    0.0000 C   0  0  0  0  0  0  0  0  0  0  0  0
   -0.7600   -0.6497    0.0000 C   0  0  0  0  0  0  0  0  0  0  0  0
   -0.7600    0.1753    0.0000 C   0  0  0  0  0  0  0  0  0  0  0  0
   -1.4744    0.5878    0.0000 C   0  0  0  0  0  0  0  0  0  0  0  0
   -2.1889    0.1753    0.0000 C   0  0  0  0  0  0  0  0  0  0  0  0
   -1.4744    1.4128    0.0000 C   0  0  0  0  0  0  0  0  0  0  0  0
   -2.1889    1.8253    0.0000 C   0  0  0  0  0  0  0  0  0  0  0  0
   -0.7600    1.8253    0.0000 O   0  0  0  0  0  0  0  0  0  0  0  0
   -2.1889    2.6503    0.0000 C   0  0  0  0  0  0  0  0  0  0  0  0
   -2.9034    3.0628    0.0000 O   0  0  0  0  0  0  0  0  0  0  0  0
  5  6  2  0
  6  1  1  0
  1  2  2  0
  5  7  1  0
  3  4  2  0
  7  8  1  0
  7  9  2  0
  4  5  1  0
  8 10  1  0
  2  3  1  0
 10 11  2  0
M  END

> <chembl_id>
CHEMBL483270

> <chembl_pref_name>
None

$$$$

     RDKit          2D

  9  9  0  0  0  0  0  0  0  0999 V2000
    4.8254   -9.1670    0.0000 N   0  0  0  0  0  0  0  0  0  0  0  0
    6.9691  -10.4099    0.0000 C   0  0  0  0  0  0  0  0  0  0  0  0
    6.2540   -9.9970    0.0000 C   0  0  0  0  0  0  0  0  0  0  0  0
    4.8312  -10.0003    0.0000 C   0  0  0  0  0  0  0  0  0  0  0  0
    5.5460  -10.4094    0.0000 C   0  0  0  0  0  0  0  0  0  0  0  0
    7.6842   -9.9970    0.0000 N   0  0  0  0  0  0  0  0  0  0  0  0
    5.5446   -8.7573    0.0000 C   0  0  0  0  0  0  0  0  0  0  0  0
    6.2576   -9.1709    0.0000 C   0  0  0  0  0  0  0  0  0  0  0  0
    6.9740   -8.7604    0.0000 F   0  0  0  0  0  0  0  0  0  0  0  0
  2  3  1  0
  3  8  2  0
  7  1  2  0
  1  4  1  0
  4  5  2  0
  5  3  1  0
  2  6  1  0
  7  8  1  0
  8  9  1  0
M  END

> <chembl_id>
CHEMBL4079586

> <chembl_pref_name>
None

$$$$

     RDKit          2D

  9  9  0  0  0  0  0  0  0  0999 V2000
   -0.1567    0.0961    0.0000 C   0  0  0  0  0  0  0  0  0  0  0  0
    0.5578   -0.3164    0.0000 C   0  0  0  0  0  0  0  0  0  0  0  0
    0.5578   -1.1414    0.0000 C   0  0  0  0  0  0  0  0  0  0  0  0
   -0.1567   -1.5539    0.0000 C   0  0  0  0  0  0  0  0  0  0  0  0
   -0.8712   -1.1414    0.0000 C   0  0  0  0  0  0  0  0  0  0  0  0
   -0.8712   -0.3164    0.0000 C   0  0  0  0  0  0  0  0  0  0  0  0
   -0.1567    0.9211    0.0000 C   0  0  0  0  0  0  0  0  0  0  0  0
    0.5578    1.3336    0.0000 C   0  0  0  0  0  0  0  0  0  0  0  0
    0.5578    2.1586    0.0000 O   0  0  0  0  0  0  0  0  0  0  0  0
  1  2  2  0
  1  6  1  0
  1  7  1  0
  2  3  1  0
  3  4  2  0
  4  5  1  0
  5  6  2  0
  8  7  1  0
  8  9  2  0
M  END

> <chembl_id>
CHEMBL1233464

> <chembl_pref_name>
PHENYLACETALDEHYDE

$$$$

     RDKit          2D

 10 10  0  0  0  0  0  0  0  0999 V2000
    2.1792   -3.5875    0.0000 N   0  0  0  0  0  0  0  0  0  0  0  0
    2.1750   -1.9292    0.0000 C   0  0  0  0  0  0  0  0  0  0  0  0
    2.8917   -2.3417    0.0000 C   0  0  0  0  0  0  0  0  0  0  0  0
    1.4625   -2.3417    0.0000 C   0  0  0  0  0  0  0  0  0  0  0  0
    2.1667   -1.1042    0.0000 N   0  0  0  0  0  0  0  0  0  0  0  0
    2.8917   -3.1667    0.0000 C   0  0  0  0  0  0  0  0  0  0  0  0
    1.4625   -3.1667    0.0000 C   0  0  0  0  0  0  0  0  0  0  0  0
    2.1750   -4.4125    0.0000 C   0  0  0  0  0  0  0  0  0  0  0  0
    2.8792   -0.6917    0.0000 C   0  0  0  0  0  0  0  0  0  0  0  0
    1.4542   -0.6917    0.0000 C   0  0  0  0  0  0  0  0  0  0  0  0
  2  4  1  0
  3  6  1  0
  4  7  2  0
  5  2  1  0
  6  1  2  0
  7  1  1  0
  8  1  1  0
  9  5  1  0
 10  5  1  0
  2  3  2  0
M  CHG  1   1   1
M  END

> <chembl_id>
CHEMBL71490

> <chembl_pref_name>
None

$$$$

     RDKit          2D

 11 11  0  0  0  0  0  0  0  0999 V2000
    8.5230  -16.1115    0.0000 C   0  0  0  0  0  0  0  0  0  0  0  0
    8.5218  -16.9388    0.0000 C   0  0  0  0  0  0  0  0  0  0  0  0
    9.2366  -17.3516    0.0000 C   0  0  0  0  0  0  0  0  0  0  0  0
    9.9531  -16.9383    0.0000 C   0  0  0  0  0  0  0  0  0  0  0  0
    9.9502  -16.1079    0.0000 C   0  0  0  0  0  0  0  0  0  0  0  0
    9.2348  -15.6987    0.0000 C   0  0  0  0  0  0  0  0  0  0  0  0
   10.6631  -15.6926    0.0000 C   0  0  0  0  0  0  0  0  0  0  0  0
   11.3790  -16.1024    0.0000 C   0  0  0  0  0  0  0  0  0  0  0  0
   12.0919  -15.6873    0.0000 N   0  0  0  0  0  0  0  0  0  0  0  0
   12.8078  -16.0971    0.0000 N   0  0  0  0  0  0  0  0  0  0  0  0
    7.8071  -17.3506    0.0000 C   0  0  0  0  0  0  0  0  0  0  0  0
  1  2  2  0
  2  3  1  0
  3  4  2  0
  4  5  1  0
  5  6  2  0
  6  1  1  0
  5  7  1  0
  7  8  1  0
  8  9  2  0
  9 10  1  0
  2 11  1  0
M  END

> <chembl_id>
CHEMBL2235126

> <chembl_pref_name>
None

$$$$

     RDKit          2D

 11 11  0  0  0  0  0  0  0  0999 V2000
    2.1750   -1.1250    0.0000 C   0  0  0  0  0  0  0  0  0  0  0  0
    2.1750   -1.9500    0.0000 C   0  0  0  0  0  0  0  0  0  0  0  0
    1.4606   -0.7125    0.0000 C   0  0  0  0  0  0  0  0  0  0  0  0
    2.8895   -0.7125    0.0000 C   0  0  0  0  0  0  0  0  0  0  0  0
    2.1750    0.5250    0.0000 C   0  0  0  0  0  0  0  0  0  0  0  0
    1.4606    0.1125    0.0000 C   0  0  0  0  0  0  0  0  0  0  0  0
    2.8895    0.1125    0.0000 C   0  0  0  0  0  0  0  0  0  0  0  0
    2.1750   -2.7750    0.0000 C   0  0  0  0  0  0  0  0  0  0  0  0
    3.0000   -1.9500    0.0000 C   0  0  0  0  0  0  0  0  0  0  0  0
    1.3500   -1.9500    0.0000 C   0  0  0  0  0  0  0  0  0  0  0  0
    2.1750    1.3500    0.0000 C   0  0  0  0  0  0  0  0  0  0  0  0
  1  2  1  0
  1  3  2  0
  1  4  1  0
  2  8  1  0
  2  9  1  0
  2 10  1  0
  3  6  1  0
  4  7  2  0
  5  6  2  0
  5  7  1  0
  5 11  1  0
M  END

> <chembl_id>
CHEMBL1489547

> <chembl_pref_name>
None

$$$$

     RDKit          2D

  8  8  0  0  0  0  0  0  0  0999 V2000
   -1.2503   -0.9008    0.0000 N   0  0  0  0  0  0  0  0  0  0  0  0
   -0.5359   -0.4883    0.0000 C   0  0  0  0  0  0  0  0  0  0  0  0
   -0.5359    0.3367    0.0000 N   0  0  0  0  0  0  0  0  0  0  0  0
    0.1786   -0.9008    0.0000 C   0  0  0  0  0  0  0  0  0  0  0  0
    0.8931   -0.4883    0.0000 C   0  0  0  0  0  0  0  0  0  0  0  0
    0.8931    0.3367    0.0000 C   0  0  0  0  0  0  0  0  0  0  0  0
    0.1786    0.7492    0.0000 C   0  0  0  0  0  0  0  0  0  0  0  0
    0.1786    1.5742    0.0000 N   0  0  0  0  0  0  0  0  0  0  0  0
  2  1  1  0
  2  3  1  0
  2  4  2  0
  7  3  2  0
  4  5  1  0
  6  5  2  0
  7  6  1  0
  7  8  1  0
M  END

> <chembl_id>
CHEMBL339234

> <chembl_pref_name>
None

$$$$

     RDKit          2D

 10 10  0  0  0  0  0  0  0  0999 V2000
    2.3071  -11.0321    0.0000 C   0  0  0  0  0  0  0  0  0  0  0  0
    2.3071  -11.8493    0.0000 C   0  0  0  0  0  0  0  0  0  0  0  0
    3.0124  -12.2537    0.0000 N   0  0  0  0  0  0  0  0  0  0  0  0
    3.7177  -11.8493    0.0000 C   0  0  0  0  0  0  0  0  0  0  0  0
    3.7177  -11.0321    0.0000 C   0  0  0  0  0  0  0  0  0  0  0  0
    3.0124  -10.6194    0.0000 C   0  0  0  0  0  0  0  0  0  0  0  0
    1.6000  -12.2589    0.0000 N   0  0  0  0  0  0  0  0  0  0  0  0
    1.6001  -10.6225    0.0000 C   0  0  0  0  0  0  0  0  0  0  0  0
    1.5978   -9.8054    0.0000 O   0  0  0  0  0  0  0  0  0  0  0  0
    0.8936  -11.0332    0.0000 O   0  0  0  0  0  0  0  0  0  0  0  0
  1  2  2  0
  1  6  1  0
  2  3  1  0
  3  4  2  0
  4  5  1  0
  5  6  2  0
  2  7  1  0
  8  9  1  0
  8 10  2  0
  1  8  1  0
M  END

> <chembl_id>
CHEMBL3322868

> <chembl_pref_name>
None

$$$$

     RDKit          2D

  8  8  0  0  0  0  0  0  0  0999 V2000
    2.1507    0.8304    0.0000 C   0  0  0  0  0  0  0  0  0  0  0  0
    1.4832    0.3455    0.0000 N   0  0  0  0  0  0  0  0  0  0  0  0
    1.7382   -0.4391    0.0000 C   0  0  0  0  0  0  0  0  0  0  0  0
    2.5632   -0.4391    0.0000 N   0  0  0  0  0  0  0  0  0  0  0  0
    2.8181    0.3455    0.0000 N   0  0  0  0  0  0  0  0  0  0  0  0
    1.2532   -1.1066    0.0000 N   0  0  0  0  0  0  0  0  0  0  0  0
    2.1507    1.6554    0.0000 C   0  0  0  0  0  0  0  0  0  0  0  0
    1.4362    2.0679    0.0000 C   0  0  0  0  0  0  0  0  0  0  0  0
  3  4  1  0
  4  5  1  0
  5  1  2  0
  1  2  1  0
  3  6  1  0
  1  7  1  0
  2  3  2  0
  7  8  1  0
M  END

> <chembl_id>
CHEMBL502781

> <chembl_pref_name>
None

$$$$

     RDKit          2D

  8  8  0  0  0  0  0  0  0  0999 V2000
   18.6166   -4.7792    0.0000 N   0  0  0  0  0  0  0  0  0  0  0  0
   19.4416   -4.7792    0.0000 C   0  0  0  0  0  0  0  0  0  0  0  0
   19.6984   -3.9951    0.0000 C   0  0  0  0  0  0  0  0  0  0  0  0
   19.0291   -3.5083    0.0000 C   0  0  0  0  0  0  0  0  0  0  0  0
   18.3641   -3.9951    0.0000 O   0  0  0  0  0  0  0  0  0  0  0  0
   19.9258   -5.4472    0.0000 N   0  0  0  0  0  0  0  0  0  0  0  0
   20.7464   -5.3619    0.0000 O   0  0  0  0  0  0  0  0  0  0  0  0
   19.0279   -2.6833    0.0000 C   0  0  0  0  0  0  0  0  0  0  0  0
  3  4  2  0
  4  5  1  0
  5  1  1  0
  1  2  2  0
  2  6  1  0
  6  7  2  0
  2  3  1  0
  4  8  1  0
M  END

> <chembl_id>
CHEMBL1916789

> <chembl_pref_name>
None

$$$$

     RDKit          2D

  8  8  0  0  0  0  0  0  0  0999 V2000
    1.2990   -0.7500    0.0000 N   0  0  0  0  0  0  0  0  0  0  0  0
    1.2990    0.7500    0.0000 C   0  0  0  0  0  0  0  0  0  0  0  0
    0.0000    1.5000    0.0000 N   0  0  0  0  0  0  0  0  0  0  0  0
   -1.2990    0.7500    0.0000 C   0  0  0  0  0  0  0  0  0  0  0  0
   -1.2990   -0.7500    0.0000 C   0  0  0  0  0  0  0  0  0  0  0  0
    0.0000   -1.5000    0.0000 C   0  0  0  0  0  0  0  0  0  0  0  0
    2.5972    1.5031    0.0000 N   0  0  0  0  0  0  0  0  0  0  0  0
    2.5955    2.7031    0.0000 N   0  0  0  0  0  0  0  0  0  0  0  0
  1  2  2  0
  2  3  1  0
  3  4  2  0
  4  5  1  0
  5  6  2  0
  6  1  1  0
  2  7  1  0
  7  8  1  0
M  END

> <chembl_id>
CHEMBL3794078

> <chembl_pref_name>
None

$$$$

     RDKit          2D

 10 10  0  0  0  0  0  0  0  0999 V2000
    0.1542    1.3250    0.0000 N   0  0  0  0  0  0  0  0  0  0  0  0
   -1.0958    0.6000    0.0000 C   0  0  0  0  0  0  0  0  0  0  0  0
    1.3792    0.6208    0.0000 C   0  0  0  0  0  0  0  0  0  0  0  0
   -1.0958   -0.8542    0.0000 C   0  0  0  0  0  0  0  0  0  0  0  0
    1.3792   -0.8375    0.0000 C   0  0  0  0  0  0  0  0  0  0  0  0
    0.1667   -1.5417    0.0000 C   0  0  0  0  0  0  0  0  0  0  0  0
   -2.3458    1.3083    0.0000 O   0  0  0  0  0  0  0  0  0  0  0  0
    0.1542    2.7458    0.0000 O   0  0  0  0  0  0  0  0  0  0  0  0
    2.6167    1.3458    0.0000 C   0  0  0  0  0  0  0  0  0  0  0  0
    0.1667   -2.9542    0.0000 C   0  0  0  0  0  0  0  0  0  0  0  0
  2  1  1  0
  3  1  1  0
  4  2  1  0
  5  3  2  0
  6  5  1  0
  7  2  2  0
  8  1  1  0
  9  3  1  0
 10  6  1  0
  4  6  2  0
M  END

> <chembl_id>
CHEMBL2104878

> <chembl_pref_name>
METIPIROX

$$$$

     RDKit          2D

  9  9  0  0  0  0  0  0  0  0999 V2000
    7.3698   -2.4557    0.0000 C   0  0  0  0  0  0  0  0  0  0  0  0
    7.3687   -3.2752    0.0000 C   0  0  0  0  0  0  0  0  0  0  0  0
    8.0767   -3.6842    0.0000 C   0  0  0  0  0  0  0  0  0  0  0  0
    8.7864   -3.2747    0.0000 N   0  0  0  0  0  0  0  0  0  0  0  0
    8.7835   -2.4521    0.0000 C   0  0  0  0  0  0  0  0  0  0  0  0
    8.0749   -2.0468    0.0000 C   0  0  0  0  0  0  0  0  0  0  0  0
    8.0765   -4.5014    0.0000 S   0  0  0  0  0  0  0  0  0  0  0  0
    9.4947   -3.6822    0.0000 O   0  0  0  0  0  0  0  0  0  0  0  0
    6.6620   -2.0472    0.0000 C   0  0  0  0  0  0  0  0  0  0  0  0
  1  2  2  0
  2  3  1  0
  3  4  1  0
  4  5  1  0
  5  6  2  0
  6  1  1  0
  3  7  2  0
  4  8  1  0
  1  9  1  0
M  END

> <chembl_id>
CHEMBL3326430

> <chembl_pref_name>
None

$$$$

     RDKit          2D

 10 11  0  0  0  0  0  0  0  0999 V2000
    0.9024    2.0626    0.0000 N   0  0  0  0  0  0  0  0  0  0  0  0
    0.9032    1.0626    0.0000 C   0  0  0  0  0  0  0  0  0  0  0  0
    1.7696    0.5632    0.0000 C   0  0  0  0  0  0  0  0  0  0  0  0
    1.7704   -0.4368    0.0000 C   0  0  0  0  0  0  0  0  0  0  0  0
    0.9048   -0.9374    0.0000 C   0  0  0  0  0  0  0  0  0  0  0  0
    0.0384   -0.4380    0.0000 C   0  0  0  0  0  0  0  0  0  0  0  0
   -0.9124   -0.7478    0.0000 O   0  0  0  0  0  0  0  0  0  0  0  0
   -1.5008    0.0606    0.0000 C   0  0  0  0  0  0  0  0  0  0  0  0
   -0.9136    0.8702    0.0000 C   0  0  0  0  0  0  0  0  0  0  0  0
    0.0376    0.5620    0.0000 C   0  0  0  0  0  0  0  0  0  0  0  0
  1  2  1  0
  2  3  1  0
  3  4  1  0
  4  5  1  0
  5  6  1  0
  6  7  1  0
  7  8  1  0
  8  9  2  0
  9 10  1  0
 10  2  1  0
 10  6  2  0
M  END

> <chembl_id>
CHEMBL4579011

> <chembl_pref_name>
None

$$$$

     RDKit          2D

  9  9  0  0  0  0  0  0  0  0999 V2000
   -0.3714   -0.4459    0.0000 N   0  0  0  0  0  0  0  0  0  0  0  0
    1.0575   -1.2709    0.0000 C   0  0  0  0  0  0  0  0  0  0  0  0
    1.7720   -0.8584    0.0000 C   0  0  0  0  0  0  0  0  0  0  0  0
    1.0575   -2.0959    0.0000 C   0  0  0  0  0  0  0  0  0  0  0  0
    2.4865   -1.2709    0.0000 C   0  0  0  0  0  0  0  0  0  0  0  0
    0.3430   -0.8584    0.0000 C   0  0  0  0  0  0  0  0  0  0  0  0
    1.7720   -2.5084    0.0000 C   0  0  0  0  0  0  0  0  0  0  0  0
    2.4865   -2.0959    0.0000 C   0  0  0  0  0  0  0  0  0  0  0  0
    1.7720   -0.0334    0.0000 C   0  0  0  0  0  0  0  0  0  0  0  0
  1  6  3  0
  2  3  1  0
  2  4  2  0
  2  6  1  0
  3  5  2  0
  3  9  1  0
  4  7  1  0
  5  8  1  0
  7  8  2  0
M  END

> <chembl_id>
CHEMBL1361840

> <chembl_pref_name>
None

$$$$

     RDKit          2D

  5  5  0  0  0  0  0  0  0  0999 V2000
    9.8148  -15.8667    0.0000 S   0  0  0  0  0  0  0  0  0  0  0  0
   10.0698  -16.6513    0.0000 N   0  0  0  0  0  0  0  0  0  0  0  0
    9.4023  -17.1362    0.0000 C   0  0  0  0  0  0  0  0  0  0  0  0
    8.7349  -16.6513    0.0000 C   0  0  0  0  0  0  0  0  0  0  0  0
    8.9898  -15.8667    0.0000 C   0  0  0  0  0  0  0  0  0  0  0  0
  1  2  1  0
  2  3  2  0
  3  4  1  0
  4  5  2  0
  1  5  1  0
M  END

> <chembl_id>
CHEMBL2171712

> <chembl_pref_name>
ISOTHIAZOLE

$$$$

     RDKit          2D

  8  8  0  0  0  0  0  0  0  0999 V2000
    5.3818   -2.6529    0.0000 C   0  0  0  0  0  0  0  0  0  0  0  0
    5.6774   -1.8827    0.0000 C   0  0  0  0  0  0  0  0  0  0  0  0
    6.5013   -1.9259    0.0000 C   0  0  0  0  0  0  0  0  0  0  0  0
    6.7148   -2.7228    0.0000 C   0  0  0  0  0  0  0  0  0  0  0  0
    6.0229   -3.1721    0.0000 S   0  0  0  0  0  0  0  0  0  0  0  0
    4.5849   -2.8665    0.0000 C   0  0  0  0  0  0  0  0  0  0  0  0
    4.3714   -3.6633    0.0000 N   0  0  0  0  0  0  0  0  0  0  0  0
    3.5745   -3.8769    0.0000 O   0  0  0  0  0  0  0  0  0  0  0  0
  1  2  2  0
  2  3  1  0
  3  4  2  0
  4  5  1  0
  1  5  1  0
  1  6  1  0
  7  8  1  0
  6  7  2  0
M  END

> <chembl_id>
CHEMBL2420347

> <chembl_pref_name>
2-THIOPHENECARBOXALDEHYDE OXIME

$$$$

     RDKit          2D

 10 10  0  0  0  0  0  0  0  0999 V2000
   -0.5714   -1.6338    0.0000 O   0  0  0  0  0  0  0  0  0  0  0  0
    0.8575   -1.6338    0.0000 O   0  0  0  0  0  0  0  0  0  0  0  0
    0.1431    0.4287    0.0000 N   0  0  0  0  0  0  0  0  0  0  0  0
    0.1431   -0.3963    0.0000 C   0  0  0  0  0  0  0  0  0  0  0  0
   -0.5714   -0.8088    0.0000 C   0  0  0  0  0  0  0  0  0  0  0  0
   -0.5714    0.8412    0.0000 C   0  0  0  0  0  0  0  0  0  0  0  0
   -1.2859   -0.3963    0.0000 C   0  0  0  0  0  0  0  0  0  0  0  0
   -1.2859    0.4287    0.0000 C   0  0  0  0  0  0  0  0  0  0  0  0
    0.8575   -0.8088    0.0000 C   0  0  0  0  0  0  0  0  0  0  0  0
   -0.5714    1.6662    0.0000 C   0  0  0  0  0  0  0  0  0  0  0  0
  1  5  1  0
  2  9  1  0
  3  4  2  0
  3  6  1  0
  4  5  1  0
  4  9  1  0
  5  7  2  0
  6  8  2  0
  6 10  1  0
  7  8  1  0
M  END

> <chembl_id>
CHEMBL1579537

> <chembl_pref_name>
None

$$$$

     RDKit          2D

 10 10  0  0  0  0  0  0  0  0999 V2000
   -4.5594    0.8825    0.0000 N   0  0  0  0  0  0  0  0  0  0  0  0
   -3.7322    0.8644    0.0000 C   0  0  0  0  0  0  0  0  0  0  0  0
   -3.2632    0.1856    0.0000 C   0  0  0  0  0  0  0  0  0  0  0  0
   -2.4424    0.1849    0.0000 C   0  0  0  0  0  0  0  0  0  0  0  0
   -2.8556   -1.0813    0.0000 O   0  0  0  0  0  0  0  0  0  0  0  0
   -3.5246   -0.6007    0.0000 N   0  0  0  0  0  0  0  0  0  0  0  0
   -2.1869   -0.6006    0.0000 N   0  0  0  0  0  0  0  0  0  0  0  0
   -1.9577    0.8546    0.0000 C   0  0  0  0  0  0  0  0  0  0  0  0
   -1.4045   -0.8568    0.0000 O   0  0  0  0  0  0  0  0  0  0  0  0
   -4.9553    1.6045    0.0000 O   0  0  0  0  0  0  0  0  0  0  0  0
  6  3  2  0
  5  6  1  0
  3  4  1  0
  4  7  2  0
  7  5  1  0
  1  2  2  0
  4  8  1  0
  2  3  1  0
  7  9  1  0
  1 10  1  0
M  CHG  2   7   1   9  -1
M  END

> <chembl_id>
CHEMBL510451

> <chembl_pref_name>
None

$$$$

     RDKit          2D

 13 15  0  0  0  0  0  0  0  0999 V2000
   12.0442   -3.7908    0.0000 C   0  0  0  0  0  0  0  0  0  0  0  0
   10.6197   -3.7944    0.0000 C   0  0  0  0  0  0  0  0  0  0  0  0
   12.8213   -2.7070    0.0000 H   0  0  0  0  0  0  0  0  0  0  0  0
   10.6186   -4.6208    0.0000 C   0  0  0  0  0  0  0  0  0  0  0  0
   12.8294   -4.8724    0.0000 C   0  0  0  0  0  0  0  0  0  0  0  0
   13.6476   -3.4506    0.0000 C   0  0  0  0  0  0  0  0  0  0  0  0
   12.8289   -3.5342    0.0000 C   0  0  0  0  0  0  0  0  0  0  0  0
   12.0445   -4.6162    0.0000 C   0  0  0  0  0  0  0  0  0  0  0  0
   13.3121   -4.2029    0.0000 C   0  0  0  0  0  0  0  0  0  0  0  0
   14.3127   -2.9628    0.0000 N   0  0  0  0  0  0  0  0  0  0  0  0
   11.3302   -3.3842    0.0000 C   0  0  0  0  0  0  0  0  0  0  0  0
   11.3320   -5.0352    0.0000 C   0  0  0  0  0  0  0  0  0  0  0  0
   14.1055   -4.4093    0.0000 H   0  0  0  0  0  0  0  0  0  0  0  0
  1  8  1  0
  7  6  1  0
 12  8  2  0
  9 13  1  1
  1 11  2  0
  5  9  1  0
  2  4  2  0
  7  1  1  0
  8  5  1  0
  6  9  1  0
  7  3  1  1
  9  7  1  0
  6 10  1  6
  4 12  1  0
 11  2  1  0
M  END


> <chembl_id>
CHEMBL4300597

> <chembl_pref_name>
None

$$$$

     RDKit          2D

 12 12  0  0  0  0  0  0  0  0999 V2000
    0.7500   -1.0323    0.0000 C   0  0  0  0  0  0  0  0  0  0  0  0
    1.2135    0.3943    0.0000 N   0  0  0  0  0  0  0  0  0  0  0  0
    1.6307   -2.2444    0.0000 C   0  0  0  0  0  0  0  0  0  0  0  0
   -1.2135    0.3943    0.0000 N   0  0  0  0  0  0  0  0  0  0  0  0
    0.0000    1.2760    0.0000 C   0  0  0  0  0  0  0  0  0  0  0  0
   -0.7500   -1.0323    0.0000 C   0  0  0  0  0  0  0  0  0  0  0  0
    3.1234   -2.0885    0.0000 C   0  0  0  0  0  0  0  0  0  0  0  0
    3.8287   -3.0593    0.0000 N   0  0  0  0  0  0  0  0  0  0  0  0
    1.1422   -3.3405    0.0000 C   0  0  0  0  0  0  0  0  0  0  0  0
    3.6118   -0.9923    0.0000 C   0  0  0  0  0  0  0  0  0  0  0  0
    0.6361   -2.3488    0.0000 H   0  0  0  0  0  0  0  0  0  0  0  0
    4.1179   -1.9841    0.0000 H   0  0  0  0  0  0  0  0  0  0  0  0
  1  2  1  0
  1  3  1  0
  2  5  2  0
  4  5  1  0
  1  6  2  0
  4  6  1  0
  3  7  1  0
  7  8  1  0
  3  9  1  6
  7 10  1  6
  3 11  1  1
  7 12  1  1
M  END

> <chembl_id>
CHEMBL1194754

> <chembl_pref_name>
None

$$$$

     RDKit          2D

 10 10  0  0  0  0  0  0  0  0999 V2000
   -0.2918   -0.0046    0.0000 C   0  0  0  0  0  0  0  0  0  0  0  0
    0.4227   -0.4171    0.0000 C   0  0  0  0  0  0  0  0  0  0  0  0
    0.4227   -1.2421    0.0000 C   0  0  0  0  0  0  0  0  0  0  0  0
   -0.2918   -1.6546    0.0000 C   0  0  0  0  0  0  0  0  0  0  0  0
   -1.0063   -1.2421    0.0000 C   0  0  0  0  0  0  0  0  0  0  0  0
   -1.0063   -0.4171    0.0000 C   0  0  0  0  0  0  0  0  0  0  0  0
   -0.2918    0.8204    0.0000 C   0  0  0  0  0  0  0  0  0  0  0  0
    0.4227    1.2329    0.0000 C   0  0  0  0  0  0  0  0  0  0  0  0
    0.4227    2.0579    0.0000 C   0  0  0  0  0  0  0  0  0  0  0  0
    1.1372    0.8204    0.0000 C   0  0  0  0  0  0  0  0  0  0  0  0
  1  2  2  0
  1  6  1  0
  1  7  1  0
  2  3  1  0
  3  4  2  0
  4  5  1  0
  5  6  2  0
  7  8  1  0
  8  9  1  0
  8 10  1  0
M  END

> <chembl_id>
CHEMBL195882

> <chembl_pref_name>
ISOBUTYLBENZENE

$$$$

     RDKit          2D

  9  9  0  0  0  0  0  0  0  0999 V2000
    4.0917   -2.0250    0.0000 N   0  0  0  0  0  0  0  0  0  0  0  0
    3.5750   -1.7292    0.0000 C   0  0  0  0  0  0  0  0  0  0  0  0
    3.0542   -2.0292    0.0000 C   0  0  0  0  0  0  0  0  0  0  0  0
    4.3875   -2.5417    0.0000 C   0  0  0  0  0  0  0  0  0  0  0  0
    3.0542   -2.6292    0.0000 C   0  0  0  0  0  0  0  0  0  0  0  0
    2.5417   -1.7292    0.0000 C   0  0  0  0  0  0  0  0  0  0  0  0
    2.5417   -2.9292    0.0000 C   0  0  0  0  0  0  0  0  0  0  0  0
    2.0250   -2.0292    0.0000 C   0  0  0  0  0  0  0  0  0  0  0  0
    2.0250   -2.6292    0.0000 C   0  0  0  0  0  0  0  0  0  0  0  0
  2  1  1  0
  3  2  1  0
  4  1  1  0
  5  3  1  0
  6  3  2  0
  7  5  2  0
  8  6  1  0
  9  7  1  0
  8  9  2  0
M  END

> <chembl_id>
CHEMBL1338

> <chembl_pref_name>
N-BENZYLMETHYLAMINE

$$$$

     RDKit          2D

 11 12  0  0  0  0  0  0  0  0999 V2000
   13.5375   -1.8500    0.0000 N   0  0  0  0  0  0  0  0  0  0  0  0
   12.8167   -1.4292    0.0000 C   0  0  0  0  0  0  0  0  0  0  0  0
   12.8250   -0.6042    0.0000 C   0  0  0  0  0  0  0  0  0  0  0  0
   14.2542   -1.4375    0.0000 C   0  0  0  0  0  0  0  0  0  0  0  0
   13.5292   -2.6750    0.0000 C   0  0  0  0  0  0  0  0  0  0  0  0
   14.2542   -0.6042    0.0000 C   0  0  0  0  0  0  0  0  0  0  0  0
   12.1042   -1.8500    0.0000 C   0  0  0  0  0  0  0  0  0  0  0  0
   13.5375   -0.1917    0.0000 C   0  0  0  0  0  0  0  0  0  0  0  0
   12.1042   -0.1917    0.0000 C   0  0  0  0  0  0  0  0  0  0  0  0
   11.3917   -1.4375    0.0000 C   0  0  0  0  0  0  0  0  0  0  0  0
   11.3917   -0.6125    0.0000 C   0  0  0  0  0  0  0  0  0  0  0  0
  2  1  1  0
  3  2  1  0
  4  1  1  0
  5  1  1  0
  6  4  1  0
  7  2  2  0
  8  6  1  0
  9  3  2  0
 10  7  1  0
 11 10  2  0
  8  3  1  0
 11  9  1  0
M  END

> <chembl_id>
CHEMBL57038

> <chembl_pref_name>
None

$$$$

     RDKit          2D

 10 10  0  0  0  0  0  0  0  0999 V2000
    2.5417   -5.0792    0.0000 C   0  0  0  0  0  0  0  0  0  0  0  0
    1.8292   -4.6667    0.0000 C   0  0  0  0  0  0  0  0  0  0  0  0
    2.5417   -5.9125    0.0000 C   0  0  0  0  0  0  0  0  0  0  0  0
    1.8292   -6.3250    0.0000 N   0  0  0  0  0  0  0  0  0  0  0  0
    1.1167   -5.0875    0.0000 C   0  0  0  0  0  0  0  0  0  0  0  0
    1.1167   -5.9125    0.0000 C   0  0  0  0  0  0  0  0  0  0  0  0
    3.2542   -4.6667    0.0000 F   0  0  0  0  0  0  0  0  0  0  0  0
    1.8250   -3.8417    0.0000 N   0  0  0  0  0  0  0  0  0  0  0  0
    3.2625   -6.3250    0.0000 F   0  0  0  0  0  0  0  0  0  0  0  0
    0.4042   -4.6750    0.0000 F   0  0  0  0  0  0  0  0  0  0  0  0
  2  1  2  0
  3  1  1  0
  4  3  2  0
  5  2  1  0
  6  4  1  0
  7  1  1  0
  8  2  1  0
  9  3  1  0
 10  5  1  0
  5  6  2  0
M  END

> <chembl_id>
CHEMBL117853

> <chembl_pref_name>
None

$$$$

     RDKit          2D

 10 10  0  0  0  0  0  0  0  0999 V2000
    0.9644    1.2205    0.0000 C   0  0  0  0  0  0  0  0  0  0  0  0
    0.9644    0.3955    0.0000 C   0  0  0  0  0  0  0  0  0  0  0  0
    1.6789   -0.0170    0.0000 C   0  0  0  0  0  0  0  0  0  0  0  0
    0.2500   -0.0170    0.0000 C   0  0  0  0  0  0  0  0  0  0  0  0
    0.2500   -0.8420    0.0000 C   0  0  0  0  0  0  0  0  0  0  0  0
   -0.4645   -1.2545    0.0000 C   0  0  0  0  0  0  0  0  0  0  0  0
   -1.1790   -0.8420    0.0000 C   0  0  0  0  0  0  0  0  0  0  0  0
   -1.1790   -0.0170    0.0000 C   0  0  0  0  0  0  0  0  0  0  0  0
   -0.4645    0.3955    0.0000 C   0  0  0  0  0  0  0  0  0  0  0  0
   -0.4645    1.2205    0.0000 O   0  0  0  0  0  0  0  0  0  0  0  0
  2  1  1  0
  2  3  1  0
  4  2  1  0
  4  5  2  0
  9  4  1  0
  5  6  1  0
  6  7  2  0
  7  8  1  0
  9  8  2  0
  9 10  1  0
M  END

> <chembl_id>
CHEMBL30018

> <chembl_pref_name>
None

$$$$

     RDKit          2D

  9 10  0  0  0  0  0  0  0  0999 V2000
    1.2446   -2.3706    0.0000 O   0  0  0  0  0  0  0  0  0  0  0  0
    1.6571   -1.6561    0.0000 C   0  0  0  0  0  0  0  0  0  0  0  0
    1.6571   -0.8311    0.0000 C   0  0  0  0  0  0  0  0  0  0  0  0
    2.0696   -2.3706    0.0000 C   0  0  0  0  0  0  0  0  0  0  0  0
    0.9426   -0.4186    0.0000 C   0  0  0  0  0  0  0  0  0  0  0  0
    2.3716   -0.4186    0.0000 C   0  0  0  0  0  0  0  0  0  0  0  0
    0.9426    0.4064    0.0000 C   0  0  0  0  0  0  0  0  0  0  0  0
    2.3716    0.4064    0.0000 C   0  0  0  0  0  0  0  0  0  0  0  0
    1.6571    0.8189    0.0000 C   0  0  0  0  0  0  0  0  0  0  0  0
  1  2  1  0
  1  4  1  0
  2  3  1  0
  2  4  1  0
  3  5  2  0
  3  6  1  0
  5  7  1  0
  6  8  2  0
  7  9  2  0
  8  9  1  0
M  END

> <chembl_id>
CHEMBL1605493

> <chembl_pref_name>
None

$$$$

     RDKit          2D

 10 10  0  0  0  0  0  0  0  0999 V2000
    0.1917    0.7125    0.0000 N   0  0  0  0  0  0  0  0  0  0  0  0
    0.6125    0.0000    0.0000 C   0  0  0  0  0  0  0  0  0  0  0  0
   -0.6333    0.7083    0.0000 N   0  0  0  0  0  0  0  0  0  0  0  0
    1.4375    0.0083    0.0000 C   0  0  0  0  0  0  0  0  0  0  0  0
    0.2083   -0.7125    0.0000 C   0  0  0  0  0  0  0  0  0  0  0  0
   -1.0333   -0.0167    0.0000 C   0  0  0  0  0  0  0  0  0  0  0  0
   -0.6125   -0.7250    0.0000 C   0  0  0  0  0  0  0  0  0  0  0  0
    1.8417    0.7292    0.0000 O   0  0  0  0  0  0  0  0  0  0  0  0
   -1.8583   -0.0250    0.0000 O   0  0  0  0  0  0  0  0  0  0  0  0
    1.8542   -0.7000    0.0000 O   0  0  0  0  0  0  0  0  0  0  0  0
  2  1  2  0
  3  1  1  0
  4  2  1  0
  5  2  1  0
  6  3  1  0
  7  6  1  0
  8  4  2  0
  9  6  2  0
 10  4  1  0
  5  7  2  0
M  END

> <chembl_id>
CHEMBL1213607

> <chembl_pref_name>
None

$$$$

     RDKit          2D

  9  9  0  0  0  0  0  0  0  0999 V2000
    0.4010   -0.5714    0.0000 C   0  0  0  0  0  0  0  0  0  0  0  0
    0.6559    0.2132    0.0000 C   0  0  0  0  0  0  0  0  0  0  0  0
   -0.4240   -0.5714    0.0000 N   0  0  0  0  0  0  0  0  0  0  0  0
    0.8859   -1.2389    0.0000 N   0  0  0  0  0  0  0  0  0  0  0  0
   -0.0115    0.6981    0.0000 N   0  0  0  0  0  0  0  0  0  0  0  0
   -0.6789    0.2132    0.0000 C   0  0  0  0  0  0  0  0  0  0  0  0
    0.5504   -1.9925    0.0000 O   0  0  0  0  0  0  0  0  0  0  0  0
    1.7064   -1.1526    0.0000 O   0  0  0  0  0  0  0  0  0  0  0  0
   -0.0115    1.5231    0.0000 C   0  0  0  0  0  0  0  0  0  0  0  0
  2  1  2  0
  3  1  1  0
  4  1  1  0
  5  2  1  0
  6  3  2  0
  7  4  1  0
  8  4  2  0
  9  5  1  0
  6  5  1  0
M  CHG  2   4   1   7  -1
M  END

> <chembl_id>
CHEMBL3544543

> <chembl_pref_name>
None

$$$$

     RDKit          2D

  9  9  0  0  0  0  0  0  0  0999 V2000
    1.1184   -0.5520    0.0000 C   0  0  0  0  0  0  0  0  0  0  0  0
    0.2534   -0.0504    0.0000 C   0  0  0  0  0  0  0  0  0  0  0  0
   -0.6136   -0.5486    0.0000 N   0  0  0  0  0  0  0  0  0  0  0  0
   -1.4786   -0.0470    0.0000 C   0  0  0  0  0  0  0  0  0  0  0  0
   -1.4766    0.9530    0.0000 C   0  0  0  0  0  0  0  0  0  0  0  0
   -2.3416    1.4548    0.0000 O   0  0  0  0  0  0  0  0  0  0  0  0
   -0.6096    1.4514    0.0000 C   0  0  0  0  0  0  0  0  0  0  0  0
   -0.6076    2.4512    0.0000 N   0  0  0  0  0  0  0  0  0  0  0  0
    0.2554    0.9496    0.0000 N   0  0  0  0  0  0  0  0  0  0  0  0
  1  2  1  0
  2  3  2  0
  3  4  1  0
  4  5  2  0
  5  6  1  0
  5  7  1  0
  7  8  1  0
  7  9  2  0
  9  2  1  0
M  END

> <chembl_id>
CHEMBL4567263

> <chembl_pref_name>
None

$$$$

     RDKit          2D

  8  8  0  0  0  0  0  0  0  0999 V2000
    1.0838    1.2762    0.0000 C   0  0  0  0  0  0  0  0  0  0  0  0
    0.8770    0.2978    0.0000 C   0  0  0  0  0  0  0  0  0  0  0  0
    1.5468   -0.4444    0.0000 O   0  0  0  0  0  0  0  0  0  0  0  0
    1.0478   -1.3110    0.0000 C   0  0  0  0  0  0  0  0  0  0  0  0
    0.0694   -1.1042    0.0000 C   0  0  0  0  0  0  0  0  0  0  0  0
   -0.0362   -0.1100    0.0000 C   0  0  0  0  0  0  0  0  0  0  0  0
   -0.9028    0.3892    0.0000 C   0  0  0  0  0  0  0  0  0  0  0  0
   -1.7680   -0.1118    0.0000 N   0  0  0  0  0  0  0  0  0  0  0  0
  1  2  1  0
  2  3  1  0
  3  4  1  0
  4  5  2  0
  5  6  1  0
  6  7  1  0
  7  8  1  0
  6  2  2  0
M  END

> <chembl_id>
CHEMBL4521494

> <chembl_pref_name>
None

$$$$

     RDKit          2D

  9 10  0  0  0  0  0  0  0  0999 V2000
    4.3917    0.9958    0.0000 C   0  0  0  0  0  0  0  0  0  0  0  0
    4.3917    0.1708    0.0000 C   0  0  0  0  0  0  0  0  0  0  0  0
    5.1037   -0.2375    0.0000 C   0  0  0  0  0  0  0  0  0  0  0  0
    5.1037    1.4125    0.0000 C   0  0  0  0  0  0  0  0  0  0  0  0
    5.8157    0.9958    0.0000 C   0  0  0  0  0  0  0  0  0  0  0  0
    5.8157    0.1744    0.0000 N   0  0  0  0  0  0  0  0  0  0  0  0
    6.5969   -0.0795    0.0000 C   0  0  0  0  0  0  0  0  0  0  0  0
    7.0798    0.5851    0.0000 N   0  0  0  0  0  0  0  0  0  0  0  0
    6.5970    1.2496    0.0000 N   0  0  0  0  0  0  0  0  0  0  0  0
  5  4  1  0
  5  6  1  0
  1  2  1  0
  1  4  1  0
  2  3  1  0
  3  6  1  0
  6  7  1  0
  7  8  2  0
  8  9  1  0
  9  5  2  0
M  END

> <chembl_id>
CHEMBL1688206

> <chembl_pref_name>
None

$$$$

     RDKit          2D

 10 10  0  0  0  0  0  0  0  0999 V2000
   13.7446   -4.4652    0.0000 O   0  0  0  0  0  0  0  0  0  0  0  0
   13.7446   -3.0363    0.0000 C   0  0  0  0  0  0  0  0  0  0  0  0
   13.3321   -3.7507    0.0000 C   0  0  0  0  0  0  0  0  0  0  0  0
   13.3321   -2.3218    0.0000 N   0  0  0  0  0  0  0  0  0  0  0  0
   12.5071   -3.7507    0.0000 C   0  0  0  0  0  0  0  0  0  0  0  0
   12.0946   -4.4652    0.0000 C   0  0  0  0  0  0  0  0  0  0  0  0
   11.2696   -4.4652    0.0000 C   0  0  0  0  0  0  0  0  0  0  0  0
   10.8571   -3.7507    0.0000 C   0  0  0  0  0  0  0  0  0  0  0  0
   11.2696   -3.0363    0.0000 C   0  0  0  0  0  0  0  0  0  0  0  0
   12.0946   -3.0363    0.0000 C   0  0  0  0  0  0  0  0  0  0  0  0
  2  3  1  0
  2  4  1  0
  1  3  1  0
  5  6  1  0
  6  7  2  0
  7  8  1  0
  8  9  2  0
  9 10  1  0
  5 10  2  0
  3  5  1  0
M  END

> <chembl_id>
CHEMBL19216

> <chembl_pref_name>
None

$$$$

     RDKit          2D

 10 11  0  0  0  0  0  0  0  0999 V2000
   -2.7868    0.4925    0.0000 C   0  0  0  0  0  0  0  0  0  0  0  0
   -3.3722    1.0737    0.0000 C   0  0  0  0  0  0  0  0  0  0  0  0
   -3.9537    0.4881    0.0000 C   0  0  0  0  0  0  0  0  0  0  0  0
   -3.9619    1.6613    0.0000 O   0  0  0  0  0  0  0  0  0  0  0  0
   -2.7950    1.6613    0.0000 C   0  0  0  0  0  0  0  0  0  0  0  0
   -1.9668    1.6711    0.0000 N   0  0  0  0  0  0  0  0  0  0  0  0
   -1.7217    2.4571    0.0000 N   0  0  0  0  0  0  0  0  0  0  0  0
   -2.3936    2.9335    0.0000 N   0  0  0  0  0  0  0  0  0  0  0  0
   -3.0541    2.4414    0.0000 N   0  0  0  0  0  0  0  0  0  0  0  0
   -3.3680   -0.0932    0.0000 N   0  0  0  0  0  0  0  0  0  0  0  0
  2  4  1  0
 10  1  1  0
  2  5  1  0
  5  6  1  0
  1  2  1  0
  2  3  1  0
  3 10  1  0
  6  7  1  0
  7  8  2  0
  8  9  1  0
  9  5  2  0
M  END

> <chembl_id>
CHEMBL1178001

> <chembl_pref_name>
None

$$$$

     RDKit          2D

 10 10  0  0  0  0  0  0  0  0999 V2000
    3.6212    0.4583    0.0000 N   0  0  0  0  0  0  0  0  0  0  0  0
    2.5413   -0.3263    0.0000 N   0  0  0  0  0  0  0  0  0  0  0  0
    2.2863    0.4583    0.0000 N   0  0  0  0  0  0  0  0  0  0  0  0
    4.0005   -2.4149    0.0000 N   0  0  0  0  0  0  0  0  0  0  0  0
    3.3663   -0.3263    0.0000 C   0  0  0  0  0  0  0  0  0  0  0  0
    2.9538    0.9432    0.0000 C   0  0  0  0  0  0  0  0  0  0  0  0
    3.8512   -0.9938    0.0000 C   0  0  0  0  0  0  0  0  0  0  0  0
    2.9538    1.7682    0.0000 C   0  0  0  0  0  0  0  0  0  0  0  0
    3.5156   -1.7474    0.0000 C   0  0  0  0  0  0  0  0  0  0  0  0
    2.2393    2.1807    0.0000 C   0  0  0  0  0  0  0  0  0  0  0  0
  1  5  2  0
  1  6  1  0
  2  3  1  0
  2  5  1  0
  3  6  2  0
  4  9  1  0
  5  7  1  0
  6  8  1  0
  7  9  1  0
  8 10  1  0
M  END

> <chembl_id>
CHEMBL1625794

> <chembl_pref_name>
None

$$$$

     RDKit          2D

 10 10  0  0  0  0  0  0  0  0999 V2000
    2.3383   -1.3500    0.0000 O   0  0  0  0  0  0  0  0  0  0  0  0
    1.2990   -0.7500    0.0000 C   0  0  0  0  0  0  0  0  0  0  0  0
    1.2990    0.7500    0.0000 C   0  0  0  0  0  0  0  0  0  0  0  0
    2.3383    1.3500    0.0000 F   0  0  0  0  0  0  0  0  0  0  0  0
    0.0000    1.5000    0.0000 C   0  0  0  0  0  0  0  0  0  0  0  0
   -1.2990    0.7500    0.0000 C   0  0  0  0  0  0  0  0  0  0  0  0
   -1.2990   -0.7500    0.0000 C   0  0  0  0  0  0  0  0  0  0  0  0
    0.0000   -1.5000    0.0000 C   0  0  0  0  0  0  0  0  0  0  0  0
   -0.0031   -3.0008    0.0000 C   0  0  0  0  0  0  0  0  0  0  0  0
   -1.0432   -3.5994    0.0000 O   0  0  0  0  0  0  0  0  0  0  0  0
  1  2  1  0
  2  3  2  0
  3  4  1  0
  3  5  1  0
  5  6  2  0
  6  7  1  0
  7  8  2  0
  8  2  1  0
  8  9  1  0
  9 10  2  0
M  END

> <chembl_id>
CHEMBL3660359

> <chembl_pref_name>
None

$$$$

     RDKit          2D

 10 10  0  0  0  0  0  0  0  0999 V2000
    2.1156   -3.3690    0.0000 C   0  0  0  0  0  0  0  0  0  0  0  0
    2.1144   -4.1948    0.0000 C   0  0  0  0  0  0  0  0  0  0  0  0
    2.8280   -4.6069    0.0000 C   0  0  0  0  0  0  0  0  0  0  0  0
    3.5431   -4.1944    0.0000 C   0  0  0  0  0  0  0  0  0  0  0  0
    3.5403   -3.3653    0.0000 C   0  0  0  0  0  0  0  0  0  0  0  0
    2.8262   -2.9569    0.0000 C   0  0  0  0  0  0  0  0  0  0  0  0
    4.2535   -2.9506    0.0000 C   0  0  0  0  0  0  0  0  0  0  0  0
    4.9682   -3.3597    0.0000 N   0  0  0  0  0  0  0  0  0  0  0  0
    4.2504   -2.1271    0.0000 O   0  0  0  0  0  0  0  0  0  0  0  0
    2.8237   -2.1334    0.0000 O   0  0  0  0  0  0  0  0  0  0  0  0
  2  3  1  0
  5  6  2  0
  6  1  1  0
  1  2  2  0
  3  4  2  0
  7  8  1  0
  7  9  2  0
  5  7  1  0
  4  5  1  0
  6 10  1  0
M  END

> <chembl_id>
CHEMBL27577

> <chembl_pref_name>
SALICYLAMIDE

$$$$

     RDKit          2D

 10 10  0  0  0  0  0  0  0  0999 V2000
    7.7357  -13.5920    0.0000 C   0  0  0  0  0  0  0  0  0  0  0  0
    7.7346  -14.4188    0.0000 C   0  0  0  0  0  0  0  0  0  0  0  0
    8.4489  -14.8315    0.0000 C   0  0  0  0  0  0  0  0  0  0  0  0
    9.1649  -14.4184    0.0000 C   0  0  0  0  0  0  0  0  0  0  0  0
    9.1621  -13.5883    0.0000 C   0  0  0  0  0  0  0  0  0  0  0  0
    8.4471  -13.1795    0.0000 C   0  0  0  0  0  0  0  0  0  0  0  0
    9.8746  -13.1734    0.0000 C   0  0  0  0  0  0  0  0  0  0  0  0
    8.4446  -12.3549    0.0000 O   0  0  0  0  0  0  0  0  0  0  0  0
    8.4487  -15.6560    0.0000 O   0  0  0  0  0  0  0  0  0  0  0  0
   10.5902  -13.5829    0.0000 O   0  0  0  0  0  0  0  0  0  0  0  0
  2  3  1  0
  5  6  2  0
  6  1  1  0
  1  2  2  0
  5  7  1  0
  3  4  2  0
  6  8  1  0
  3  9  1  0
  4  5  1  0
  7 10  2  0
M  END

> <chembl_id>
CHEMBL243186

> <chembl_pref_name>
None

$$$$

     RDKit          2D

 10 10  0  0  0  0  0  0  0  0999 V2000
   -5.1383   -0.7944    0.0000 C   0  0  0  0  0  0  0  0  0  0  0  0
   -5.1394   -1.6204    0.0000 C   0  0  0  0  0  0  0  0  0  0  0  0
   -4.4259   -2.0324    0.0000 N   0  0  0  0  0  0  0  0  0  0  0  0
   -3.7107   -1.6199    0.0000 C   0  0  0  0  0  0  0  0  0  0  0  0
   -3.7135   -0.7908    0.0000 C   0  0  0  0  0  0  0  0  0  0  0  0
   -4.4277   -0.3823    0.0000 C   0  0  0  0  0  0  0  0  0  0  0  0
   -3.0004   -0.3760    0.0000 C   0  0  0  0  0  0  0  0  0  0  0  0
   -2.2855   -0.7851    0.0000 O   0  0  0  0  0  0  0  0  0  0  0  0
   -3.0034    0.4475    0.0000 O   0  0  0  0  0  0  0  0  0  0  0  0
   -5.8516   -0.3828    0.0000 F   0  0  0  0  0  0  0  0  0  0  0  0
  2  3  1  0
  5  6  2  0
  6  1  1  0
  1  2  2  0
  3  4  2  0
  7  8  1  0
  7  9  2  0
  5  7  1  0
  4  5  1  0
  1 10  1  0
M  END

> <chembl_id>
CHEMBL397783

> <chembl_pref_name>
None

$$$$

     RDKit          2D

  9  9  0  0  0  0  0  0  0  0999 V2000
   23.3807   -8.7869    0.0000 N   0  0  0  0  0  0  0  0  0  0  0  0
   24.1979   -8.7869    0.0000 C   0  0  0  0  0  0  0  0  0  0  0  0
   24.4523   -8.0102    0.0000 C   0  0  0  0  0  0  0  0  0  0  0  0
   23.7893   -7.5281    0.0000 N   0  0  0  0  0  0  0  0  0  0  0  0
   23.1306   -8.0102    0.0000 C   0  0  0  0  0  0  0  0  0  0  0  0
   22.3533   -7.7580    0.0000 C   0  0  0  0  0  0  0  0  0  0  0  0
   25.2298   -7.7587    0.0000 C   0  0  0  0  0  0  0  0  0  0  0  0
   25.8364   -8.3064    0.0000 N   0  0  0  0  0  0  0  0  0  0  0  0
   25.4008   -6.9596    0.0000 S   0  0  0  0  0  0  0  0  0  0  0  0
  1  2  1  0
  2  3  2  0
  3  4  1  0
  4  5  1  0
  5  1  2  0
  5  6  1  0
  3  7  1  0
  7  8  1  0
  7  9  2  0
M  END

> <chembl_id>
CHEMBL3110248

> <chembl_pref_name>
None

$$$$

     RDKit          2D

 10 10  0  0  0  0  0  0  0  0999 V2000
   -1.2500   -1.5292    0.0000 N   0  0  0  0  0  0  0  0  0  0  0  0
   -0.8958   -0.2417    0.0000 C   0  0  0  0  0  0  0  0  0  0  0  0
    0.8375    1.0833    0.0000 C   0  0  0  0  0  0  0  0  0  0  0  0
   -0.6083   -1.0125    0.0000 C   0  0  0  0  0  0  0  0  0  0  0  0
   -1.9375   -1.0750    0.0000 C   0  0  0  0  0  0  0  0  0  0  0  0
   -1.7208   -0.2792    0.0000 C   0  0  0  0  0  0  0  0  0  0  0  0
    0.4667    1.8208    0.0000 O   0  0  0  0  0  0  0  0  0  0  0  0
    1.6625    1.0333    0.0000 N   0  0  0  0  0  0  0  0  0  0  0  0
    0.3792    0.3958    0.0000 C   0  0  0  0  0  0  0  0  0  0  0  0
   -0.4375    0.4458    0.0000 C   0  0  0  0  0  0  0  0  0  0  0  0
  2  4  2  0
  3  9  1  0
  4  1  1  0
  5  1  1  0
  6  5  2  0
  7  3  2  0
  8  3  1  0
  9 10  1  0
 10  2  1  0
  6  2  1  0
M  END

> <chembl_id>
CHEMBL277776

> <chembl_pref_name>
None

$$$$

     RDKit          2D

 10 10  0  0  0  0  0  0  0  0999 V2000
    2.7081  -24.2690    0.0000 N   0  0  0  0  0  0  0  0  0  0  0  0
    3.5330  -24.2690    0.0000 N   0  0  0  0  0  0  0  0  0  0  0  0
    3.7898  -23.4849    0.0000 C   0  0  0  0  0  0  0  0  0  0  0  0
    3.1206  -22.9982    0.0000 C   0  0  0  0  0  0  0  0  0  0  0  0
    2.4556  -23.4849    0.0000 C   0  0  0  0  0  0  0  0  0  0  0  0
    4.5781  -23.2291    0.0000 C   0  0  0  0  0  0  0  0  0  0  0  0
    5.1904  -23.7819    0.0000 O   0  0  0  0  0  0  0  0  0  0  0  0
    4.7507  -22.4224    0.0000 O   0  0  0  0  0  0  0  0  0  0  0  0
    1.6709  -23.2303    0.0000 C   0  0  0  0  0  0  0  0  0  0  0  0
    1.0581  -23.7826    0.0000 O   0  0  0  0  0  0  0  0  0  0  0  0
  5  1  2  0
  1  2  1  0
  2  3  1  0
  6  7  1  0
  6  8  2  0
  3  6  1  0
  3  4  2  0
  5  9  1  0
  4  5  1  0
  9 10  2  0
M  END

> <chembl_id>
CHEMBL246692

> <chembl_pref_name>
None

$$$$

     RDKit          2D

 10 10  0  0  0  0  0  0  0  0999 V2000
    6.4114    2.0863    0.0000 C   0  0  0  0  0  0  0  0  0  0  0  0
    6.4103    1.2595    0.0000 C   0  0  0  0  0  0  0  0  0  0  0  0
    7.1247    0.8468    0.0000 C   0  0  0  0  0  0  0  0  0  0  0  0
    7.8407    1.2599    0.0000 C   0  0  0  0  0  0  0  0  0  0  0  0
    7.8379    2.0900    0.0000 C   0  0  0  0  0  0  0  0  0  0  0  0
    7.1229    2.4988    0.0000 C   0  0  0  0  0  0  0  0  0  0  0  0
    7.1204    3.3233    0.0000 C   0  0  0  0  0  0  0  0  0  0  0  0
    6.4051    3.7335    0.0000 O   0  0  0  0  0  0  0  0  0  0  0  0
    8.5504    2.5049    0.0000 O   0  0  0  0  0  0  0  0  0  0  0  0
    9.2660    2.0954    0.0000 C   0  0  0  0  0  0  0  0  0  0  0  0
  2  3  1  0
  5  6  2  0
  6  1  1  0
  1  2  2  0
  6  7  1  0
  3  4  2  0
  7  8  2  0
  5  9  1  0
  4  5  1  0
  9 10  1  0
M  END

> <chembl_id>
CHEMBL396295

> <chembl_pref_name>
2-METHOXYBENZALDEHYDE

$$$$

     RDKit          2D

 10 10  0  0  0  0  0  0  0  0999 V2000
    4.0250   -3.7417    0.0000 C   0  0  0  0  0  0  0  0  0  0  0  0
    3.7750   -2.9542    0.0000 N   0  0  0  0  0  0  0  0  0  0  0  0
    4.8500   -3.7417    0.0000 C   0  0  0  0  0  0  0  0  0  0  0  0
    3.5417   -4.4125    0.0000 C   0  0  0  0  0  0  0  0  0  0  0  0
    4.4375   -2.4750    0.0000 O   0  0  0  0  0  0  0  0  0  0  0  0
    5.1042   -2.9542    0.0000 C   0  0  0  0  0  0  0  0  0  0  0  0
    3.8750   -5.1667    0.0000 O   0  0  0  0  0  0  0  0  0  0  0  0
    2.7167   -4.3167    0.0000 O   0  0  0  0  0  0  0  0  0  0  0  0
    5.8917   -2.7042    0.0000 C   0  0  0  0  0  0  0  0  0  0  0  0
    6.5042   -3.2542    0.0000 O   0  0  0  0  0  0  0  0  0  0  0  0
  2  1  2  0
  3  1  1  0
  4  1  1  0
  5  2  1  0
  6  3  2  0
  7  4  2  0
  8  4  1  0
  9  6  1  0
 10  9  1  0
  6  5  1  0
M  END

> <chembl_id>
CHEMBL342609

> <chembl_pref_name>
None

$$$$

     RDKit          2D

 10 10  0  0  0  0  0  0  0  0999 V2000
   12.7228   -2.6662    0.0000 C   0  0  0  0  0  0  0  0  0  0  0  0
   12.7217   -3.4857    0.0000 C   0  0  0  0  0  0  0  0  0  0  0  0
   13.4297   -3.8947    0.0000 C   0  0  0  0  0  0  0  0  0  0  0  0
   14.1394   -3.4852    0.0000 C   0  0  0  0  0  0  0  0  0  0  0  0
   14.1366   -2.6626    0.0000 C   0  0  0  0  0  0  0  0  0  0  0  0
   13.4279   -2.2573    0.0000 N   0  0  0  0  0  0  0  0  0  0  0  0
   14.8427   -2.2513    0.0000 C   0  0  0  0  0  0  0  0  0  0  0  0
   15.5520   -2.6572    0.0000 N   0  0  0  0  0  0  0  0  0  0  0  0
   14.8396   -1.4341    0.0000 N   0  0  0  0  0  0  0  0  0  0  0  0
   15.5458   -1.0228    0.0000 O   0  0  0  0  0  0  0  0  0  0  0  0
  1  2  2  0
  2  3  1  0
  3  4  2  0
  4  5  1  0
  5  6  2  0
  6  1  1  0
  5  7  1  0
  7  8  1  0
  7  9  2  0
  9 10  1  0
M  END

> <chembl_id>
CHEMBL3263490

> <chembl_pref_name>
None

$$$$

     RDKit          2D

 10 10  0  0  0  0  0  0  0  0999 V2000
    7.8404   -7.6839    0.0000 C   0  0  0  0  0  0  0  0  0  0  0  0
    7.1259   -8.0964    0.0000 C   0  0  0  0  0  0  0  0  0  0  0  0
    6.4115   -7.6839    0.0000 C   0  0  0  0  0  0  0  0  0  0  0  0
    6.4115   -6.8589    0.0000 C   0  0  0  0  0  0  0  0  0  0  0  0
    7.1259   -6.4464    0.0000 C   0  0  0  0  0  0  0  0  0  0  0  0
    7.8404   -6.8589    0.0000 C   0  0  0  0  0  0  0  0  0  0  0  0
    5.6970   -8.0964    0.0000 O   0  0  0  0  0  0  0  0  0  0  0  0
    4.9825   -7.6839    0.0000 C   0  0  0  0  0  0  0  0  0  0  0  0
    8.5549   -8.0964    0.0000 O   0  0  0  0  0  0  0  0  0  0  0  0
    9.2694   -7.6839    0.0000 C   0  0  0  0  0  0  0  0  0  0  0  0
  1  2  1  0
  2  3  2  0
  3  4  1  0
  4  5  2  0
  5  6  1  0
  1  6  2  0
  7  8  1  0
  3  7  1  0
  9 10  1  0
  1  9  1  0
M  END

> <chembl_id>
CHEMBL2252486

> <chembl_pref_name>
1,3-DIMETHOXYBENZENE

$$$$

     RDKit          2D

 10 10  0  0  0  0  0  0  0  0999 V2000
   -2.9965   -6.6191    0.0000 C   0  0  0  0  0  0  0  0  0  0  0  0
   -2.9976   -7.4463    0.0000 C   0  0  0  0  0  0  0  0  0  0  0  0
   -2.2830   -7.8590    0.0000 C   0  0  0  0  0  0  0  0  0  0  0  0
   -1.5668   -7.4458    0.0000 C   0  0  0  0  0  0  0  0  0  0  0  0
   -1.5696   -6.6155    0.0000 C   0  0  0  0  0  0  0  0  0  0  0  0
   -2.2848   -6.2064    0.0000 C   0  0  0  0  0  0  0  0  0  0  0  0
   -0.8569   -6.2004    0.0000 C   0  0  0  0  0  0  0  0  0  0  0  0
   -0.1411   -6.6101    0.0000 O   0  0  0  0  0  0  0  0  0  0  0  0
   -3.7122   -7.8581    0.0000 C   0  0  0  0  0  0  0  0  0  0  0  0
   -4.4265   -8.2719    0.0000 N   0  0  0  0  0  0  0  0  0  0  0  0
  2  3  1  0
  5  6  2  0
  6  1  1  0
  1  2  2  0
  5  7  1  0
  3  4  2  0
  7  8  2  0
  2  9  1  0
  4  5  1  0
  9 10  3  0
M  END

> <chembl_id>
CHEMBL1922276

> <chembl_pref_name>
None

$$$$

     RDKit          2D

 10 10  0  0  0  0  0  0  0  0999 V2000
    0.7165   -2.4780    0.0000 O   0  0  0  0  0  0  0  0  0  0  0  0
    0.7165    0.0000    0.0000 O   0  0  0  0  0  0  0  0  0  0  0  0
    1.4331   -1.2447    0.0000 C   0  0  0  0  0  0  0  0  0  0  0  0
    1.4331   -2.0697    0.0000 C   0  0  0  0  0  0  0  0  0  0  0  0
    0.7165   -0.8279    0.0000 C   0  0  0  0  0  0  0  0  0  0  0  0
    2.1497   -0.8279    0.0000 C   0  0  0  0  0  0  0  0  0  0  0  0
    2.1497   -2.4780    0.0000 C   0  0  0  0  0  0  0  0  0  0  0  0
    2.8548   -1.2447    0.0000 C   0  0  0  0  0  0  0  0  0  0  0  0
    2.8548   -2.0697    0.0000 C   0  0  0  0  0  0  0  0  0  0  0  0
    0.0000   -1.2447    0.0000 C   0  0  0  0  0  0  0  0  0  0  0  0
  1  4  1  0
  2  5  2  0
  3  4  1  0
  3  5  1  0
  3  6  2  0
  4  7  2  0
  5 10  1  0
  6  8  1  0
  7  9  1  0
  8  9  2  0
M  END

> <chembl_id>
CHEMBL3187012

> <chembl_pref_name>
None

$$$$
 
     RDKit          2D

  9  9  0  0  0  0  0  0  0  0999 V2000
    8.4443   -8.1967    0.0000 C   0  0  0  0  0  0  0  0  0  0  0  0
    9.2615   -8.1967    0.0000 C   0  0  0  0  0  0  0  0  0  0  0  0
    9.5158   -7.4200    0.0000 C   0  0  0  0  0  0  0  0  0  0  0  0
    8.8529   -6.9379    0.0000 C   0  0  0  0  0  0  0  0  0  0  0  0
    8.1941   -7.4200    0.0000 S   0  0  0  0  0  0  0  0  0  0  0  0
    9.7410   -8.8584    0.0000 O   0  0  0  0  0  0  0  0  0  0  0  0
    8.8516   -6.1207    0.0000 C   0  0  0  0  0  0  0  0  0  0  0  0
    9.5587   -5.7110    0.0000 O   0  0  0  0  0  0  0  0  0  0  0  0
    8.1433   -5.7132    0.0000 O   0  0  0  0  0  0  0  0  0  0  0  0
  1  2  2  0
  2  3  1  0
  3  4  2  0
  4  5  1  0
  5  1  1  0
  2  6  1  0
  4  7  1  0
  7  8  1  0
  7  9  2  0
M  END

> <chembl_id>
CHEMBL4451259

> <chembl_pref_name>
None

$$$$

     RDKit          2D

  9  9  0  0  0  0  0  0  0  0999 V2000
    1.8844   -1.8500    0.0000 N   0  0  0  0  0  0  0  0  0  0  0  0
    1.8286   -0.8516    0.0000 C   0  0  0  0  0  0  0  0  0  0  0  0
    2.6652   -0.3040    0.0000 O   0  0  0  0  0  0  0  0  0  0  0  0
    0.9358   -0.4008    0.0000 C   0  0  0  0  0  0  0  0  0  0  0  0
    0.0466   -0.8582    0.0000 N   0  0  0  0  0  0  0  0  0  0  0  0
   -0.6632   -0.1538    0.0000 N   0  0  0  0  0  0  0  0  0  0  0  0
   -0.2124    0.7390    0.0000 C   0  0  0  0  0  0  0  0  0  0  0  0
   -0.6698    1.6282    0.0000 N   0  0  0  0  0  0  0  0  0  0  0  0
    0.7758    0.5862    0.0000 O   0  0  0  0  0  0  0  0  0  0  0  0
  1  2  1  0
  2  3  2  0
  2  4  1  0
  4  5  2  0
  5  6  1  0
  6  7  2  0
  7  8  1  0
  7  9  1  0
  9  4  1  0
M  END

> <chembl_id>
CHEMBL4588816

> <chembl_pref_name>
None

$$$$

     RDKit          2D

  9  9  0  0  0  0  0  0  0  0999 V2000
    1.3037    1.0000    0.0000 C   0  0  0  0  0  0  0  0  0  0  0  0
    2.1666    0.4944    0.0000 C   0  0  0  0  0  0  0  0  0  0  0  0
    2.1602   -0.5056    0.0000 C   0  0  0  0  0  0  0  0  0  0  0  0
    1.2910   -1.0000    0.0000 N   0  0  0  0  0  0  0  0  0  0  0  0
    0.4281   -0.4944    0.0000 C   0  0  0  0  0  0  0  0  0  0  0  0
    0.4345    0.5056    0.0000 C   0  0  0  0  0  0  0  0  0  0  0  0
   -0.4409   -0.9888    0.0000 C   0  0  0  0  0  0  0  0  0  0  0  0
   -1.3038   -0.4834    0.0000 C   0  0  0  0  0  0  0  0  0  0  0  0
   -2.1666    0.0222    0.0000 N   0  0  0  0  0  0  0  0  0  0  0  0
  1  2  2  0
  2  3  1  0
  3  4  2  0
  4  5  1  0
  5  6  2  0
  5  7  1  0
  7  8  1  0
  8  9  3  0
  6  1  1  0
M  END

> <chembl_id>
CHEMBL4630648

> <chembl_pref_name>
None

$$$$

     RDKit          2D

 11 11  0  0  0  0  0  0  0  0999 V2000
   -4.3498    0.1022    0.0000 N   0  0  0  0  0  0  0  0  0  0  0  0
   -3.4820   -0.3946    0.0000 C   0  0  0  0  0  0  0  0  0  0  0  0
   -2.6142   -0.8914    0.0000 C   0  0  0  0  0  0  0  0  0  0  0  0
   -1.7500   -0.3884    0.0000 C   0  0  0  0  0  0  0  0  0  0  0  0
   -0.8822   -0.8852    0.0000 O   0  0  0  0  0  0  0  0  0  0  0  0
   -0.0178   -0.3822    0.0000 C   0  0  0  0  0  0  0  0  0  0  0  0
    0.8500   -0.8790    0.0000 C   0  0  0  0  0  0  0  0  0  0  0  0
    1.7142   -0.3760    0.0000 C   0  0  0  0  0  0  0  0  0  0  0  0
    1.7106    0.6240    0.0000 C   0  0  0  0  0  0  0  0  0  0  0  0
    0.8428    1.1208    0.0000 C   0  0  0  0  0  0  0  0  0  0  0  0
   -0.0216    0.6178    0.0000 C   0  0  0  0  0  0  0  0  0  0  0  0
  1  2  3  0
  2  3  1  0
  3  4  1  0
  4  5  1  0
  5  6  1  0
  6  7  2  0
  7  8  1  0
  8  9  2  0
  9 10  1  0
 10 11  2  0
 11  6  1  0
M  END

> <chembl_id>
CHEMBL4542940

> <chembl_pref_name>
None

$$$$

     RDKit          2D

 10 10  0  0  0  0  0  0  0  0999 V2000
   -0.1771  -15.4699    0.0000 C   0  0  0  0  0  0  0  0  0  0  0  0
    0.2355  -16.7386    0.0000 O   0  0  0  0  0  0  0  0  0  0  0  0
    0.9035  -16.2544    0.0000 N   0  0  0  0  0  0  0  0  0  0  0  0
    0.6442  -15.4664    0.0000 C   0  0  0  0  0  0  0  0  0  0  0  0
   -0.4322  -16.2543    0.0000 N   0  0  0  0  0  0  0  0  0  0  0  0
    1.1300  -14.7959    0.0000 C   0  0  0  0  0  0  0  0  0  0  0  0
   -0.6611  -14.8012    0.0000 C   0  0  0  0  0  0  0  0  0  0  0  0
    1.6852  -16.5134    0.0000 O   0  0  0  0  0  0  0  0  0  0  0  0
    0.7947  -14.0453    0.0000 N   0  0  0  0  0  0  0  0  0  0  0  0
    1.2771  -13.3795    0.0000 O   0  0  0  0  0  0  0  0  0  0  0  0
  5  2  1  0
  4  6  1  0
  3  4  2  0
  1  7  1  0
  2  3  1  0
  3  8  1  0
  4  1  1  0
  6  9  2  0
  1  5  2  0
  9 10  1  0
M  CHG  2   3   1   8  -1
M  END

> <chembl_id>
CHEMBL488672

> <chembl_pref_name>
None

$$$$

     RDKit          2D

 10 10  0  0  0  0  0  0  0  0999 V2000
    0.2866   -0.1646    0.0000 C   0  0  0  0  0  0  0  0  0  0  0  0
    1.0011   -0.5771    0.0000 C   0  0  0  0  0  0  0  0  0  0  0  0
   -0.4278   -0.5771    0.0000 C   0  0  0  0  0  0  0  0  0  0  0  0
    0.2866    0.6604    0.0000 N   0  0  0  0  0  0  0  0  0  0  0  0
    1.0011   -1.4021    0.0000 C   0  0  0  0  0  0  0  0  0  0  0  0
   -0.4278   -1.4021    0.0000 C   0  0  0  0  0  0  0  0  0  0  0  0
    0.2866   -1.8146    0.0000 C   0  0  0  0  0  0  0  0  0  0  0  0
   -0.4278    1.0729    0.0000 C   0  0  0  0  0  0  0  0  0  0  0  0
   -0.4278    1.8979    0.0000 C   0  0  0  0  0  0  0  0  0  0  0  0
   -1.1423    2.3104    0.0000 C   0  0  0  0  0  0  0  0  0  0  0  0
  1  2  2  0
  1  3  1  0
  1  4  1  0
  2  5  1  0
  3  6  2  0
  8  4  1  0
  5  7  2  0
  6  7  1  0
  8  9  1  0
  9 10  2  0
M  END

> <chembl_id>
CHEMBL1234871

> <chembl_pref_name>
None

$$$$

     RDKit          2D

 10 10  0  0  0  0  0  0  0  0999 V2000
   -0.2100    2.3452    0.0000 C   0  0  0  0  0  0  0  0  0  0  0  0
    0.0524    1.3804    0.0000 C   0  0  0  0  0  0  0  0  0  0  0  0
   -0.6520    0.6708    0.0000 N   0  0  0  0  0  0  0  0  0  0  0  0
   -1.6402    0.8234    0.0000 C   0  0  0  0  0  0  0  0  0  0  0  0
   -2.0910   -0.0692    0.0000 C   0  0  0  0  0  0  0  0  0  0  0  0
   -1.3812   -0.7736    0.0000 N   0  0  0  0  0  0  0  0  0  0  0  0
   -0.4920   -0.3164    0.0000 C   0  0  0  0  0  0  0  0  0  0  0  0
    0.4008   -0.7670    0.0000 C   0  0  0  0  0  0  0  0  0  0  0  0
    0.4568   -1.7654    0.0000 C   0  0  0  0  0  0  0  0  0  0  0  0
    1.2374   -0.2194    0.0000 O   0  0  0  0  0  0  0  0  0  0  0  0
  1  2  1  0
  2  3  1  0
  3  4  1  0
  4  5  2  0
  5  6  1  0
  6  7  2  0
  7  8  1  0
  8  9  1  0
  8 10  2  0
  7  3  1  0
M  END

> <chembl_id>
CHEMBL4559627

> <chembl_pref_name>
None

$$$$

     RDKit          2D

  9  9  0  0  0  0  0  0  0  0999 V2000
   -2.6702   -0.4618    0.0000 C   0  0  0  0  0  0  0  0  0  0  0  0
   -1.8038    0.0372    0.0000 C   0  0  0  0  0  0  0  0  0  0  0  0
   -0.9384   -0.4638    0.0000 C   0  0  0  0  0  0  0  0  0  0  0  0
   -0.0718    0.0352    0.0000 C   0  0  0  0  0  0  0  0  0  0  0  0
    0.8414   -0.3726    0.0000 N   0  0  0  0  0  0  0  0  0  0  0  0
    1.5112    0.3698    0.0000 C   0  0  0  0  0  0  0  0  0  0  0  0
    2.5056    0.2642    0.0000 C   0  0  0  0  0  0  0  0  0  0  0  0
    1.0122    1.2364    0.0000 N   0  0  0  0  0  0  0  0  0  0  0  0
    0.0340    1.0296    0.0000 N   0  0  0  0  0  0  0  0  0  0  0  0
  1  2  1  0
  2  3  1  0
  3  4  1  0
  4  5  2  0
  5  6  1  0
  6  7  1  0
  6  8  2  0
  8  9  1  0
  9  4  1  0
M  END

> <chembl_id>
CHEMBL4552989

> <chembl_pref_name>
None

$$$$

     RDKit          2D

 10 10  0  0  0  0  0  0  0  0999 V2000
    0.7162    2.0708    0.0000 C   0  0  0  0  0  0  0  0  0  0  0  0
   -0.1508    1.5724    0.0000 N   0  0  0  0  0  0  0  0  0  0  0  0
   -0.1528    0.5724    0.0000 C   0  0  0  0  0  0  0  0  0  0  0  0
    0.7122    0.0708    0.0000 N   0  0  0  0  0  0  0  0  0  0  0  0
    0.7102   -0.9292    0.0000 C   0  0  0  0  0  0  0  0  0  0  0  0
   -0.1568   -1.4274    0.0000 C   0  0  0  0  0  0  0  0  0  0  0  0
   -1.0218   -0.9258    0.0000 C   0  0  0  0  0  0  0  0  0  0  0  0
   -1.0198    0.0742    0.0000 C   0  0  0  0  0  0  0  0  0  0  0  0
   -1.8848    0.5760    0.0000 O   0  0  0  0  0  0  0  0  0  0  0  0
   -2.7518    0.0776    0.0000 C   0  0  0  0  0  0  0  0  0  0  0  0
  1  2  1  0
  2  3  1  0
  3  4  2  0
  4  5  1  0
  5  6  2  0
  6  7  1  0
  7  8  2  0
  8  9  1  0
  9 10  1  0
  8  3  1  0
M  END

> <chembl_id>
CHEMBL4540785

> <chembl_pref_name>
None

$$$$

     RDKit          2D

  9  9  0  0  0  0  0  0  0  0999 V2000
   -0.1588    0.0824    0.0000 C   0  0  0  0  0  0  0  0  0  0  0  0
    0.5556   -0.3301    0.0000 C   0  0  0  0  0  0  0  0  0  0  0  0
    0.5556   -1.1551    0.0000 C   0  0  0  0  0  0  0  0  0  0  0  0
   -0.1588   -1.5676    0.0000 C   0  0  0  0  0  0  0  0  0  0  0  0
   -0.8733   -1.1551    0.0000 C   0  0  0  0  0  0  0  0  0  0  0  0
   -0.8733   -0.3301    0.0000 C   0  0  0  0  0  0  0  0  0  0  0  0
   -0.1588    0.9074    0.0000 C   0  0  0  0  0  0  0  0  0  0  0  0
    0.5556    1.3199    0.0000 C   0  0  0  0  0  0  0  0  0  0  0  0
    0.5556    2.1449    0.0000 O   0  0  0  0  0  0  0  0  0  0  0  0
  1  2  2  0
  1  6  1  0
  1  7  1  0
  2  3  1  0
  3  4  2  0
  4  5  1  0
  5  6  2  0
  8  7  1  0
  8  9  1  0
M  END

> <chembl_id>
CHEMBL448500

> <chembl_pref_name>
PHENYLETHYL ALCOHOL

$$$$

     RDKit          2D

  9  9  0  0  0  0  0  0  0  0999 V2000
    2.8979   -3.1071    0.0000 N   0  0  0  0  0  0  0  0  0  0  0  0
    3.6040   -2.6958    0.0000 C   0  0  0  0  0  0  0  0  0  0  0  0
    4.3493   -3.0283    0.0000 N   0  0  0  0  0  0  0  0  0  0  0  0
    4.8939   -2.4186    0.0000 N   0  0  0  0  0  0  0  0  0  0  0  0
    4.4825   -1.7128    0.0000 C   0  0  0  0  0  0  0  0  0  0  0  0
    3.6839   -1.8858    0.0000 C   0  0  0  0  0  0  0  0  0  0  0  0
    5.7109   -2.4042    0.0000 C   0  0  0  0  0  0  0  0  0  0  0  0
    6.1320   -3.1045    0.0000 C   0  0  0  0  0  0  0  0  0  0  0  0
    6.1069   -1.6893    0.0000 C   0  0  0  0  0  0  0  0  0  0  0  0
  1  2  1  0
  2  3  2  0
  3  4  1  0
  4  5  1  0
  5  6  2  0
  6  2  1  0
  4  7  1  0
  7  8  1  0
  7  9  1  0
M  END

> <chembl_id>
CHEMBL3219113

> <chembl_pref_name>
None

$$$$

     RDKit          2D

  8  8  0  0  0  0  0  0  0  0999 V2000
    0.0000   -2.1428    0.0000 Cl  0  0  0  0  0  0  0  0  0  0  0  0
    1.6500   -2.1428    0.0000 S   0  0  0  0  0  0  0  0  0  0  0  0
    0.4114   -1.4293    0.0000 C   0  0  0  0  0  0  0  0  0  0  0  0
    1.2364   -1.4293    0.0000 C   0  0  0  0  0  0  0  0  0  0  0  0
    0.0000   -0.7135    0.0000 C   0  0  0  0  0  0  0  0  0  0  0  0
    1.6500   -0.7135    0.0000 C   0  0  0  0  0  0  0  0  0  0  0  0
    0.4114    0.0000    0.0000 C   0  0  0  0  0  0  0  0  0  0  0  0
    1.2364    0.0000    0.0000 C   0  0  0  0  0  0  0  0  0  0  0  0
  1  3  1  0
  2  4  1  0
  3  4  1  0
  3  5  2  0
  4  6  2  0
  5  7  1  0
  6  8  1  0
  7  8  2  0
M  END

> <chembl_id>
CHEMBL3560357

> <chembl_pref_name>
None

$$$$

     RDKit          2D

 11 11  0  0  0  0  0  0  0  0999 V2000
    6.0500   -4.0667    0.0000 C   0  0  0  0  0  0  0  0  0  0  0  0
    6.4667   -3.3542    0.0000 O   0  0  0  0  0  0  0  0  0  0  0  0
    5.2250   -4.0625    0.0000 C   0  0  0  0  0  0  0  0  0  0  0  0
    6.4542   -4.7792    0.0000 C   0  0  0  0  0  0  0  0  0  0  0  0
    7.2792   -4.7875    0.0000 N   0  0  0  0  0  0  0  0  0  0  0  0
    4.8125   -4.7667    0.0000 C   0  0  0  0  0  0  0  0  0  0  0  0
    4.8167   -3.3500    0.0000 C   0  0  0  0  0  0  0  0  0  0  0  0
    6.0417   -5.4917    0.0000 C   0  0  0  0  0  0  0  0  0  0  0  0
    3.9917   -3.3417    0.0000 C   0  0  0  0  0  0  0  0  0  0  0  0
    3.9917   -4.7667    0.0000 C   0  0  0  0  0  0  0  0  0  0  0  0
    3.5875   -4.0542    0.0000 C   0  0  0  0  0  0  0  0  0  0  0  0
  2  1  2  0
  3  1  1  0
  4  1  1  0
  5  4  1  0
  6  3  1  0
  7  3  2  0
  8  4  1  0
  9  7  1  0
 10  6  2  0
 11  9  2  0
 11 10  1  0
M  END

> <chembl_id>
CHEMBL1124

> <chembl_pref_name>
DEALKYLATED DIETHYLPROPION

$$$$

     RDKit          2D

  7  7  0  0  0  0  0  0  0  0999 V2000
    5.9574   -0.8708    0.0000 N   0  0  0  0  0  0  0  0  0  0  0  0
    6.7823   -0.8708    0.0000 N   0  0  0  0  0  0  0  0  0  0  0  0
    7.0391   -0.0867    0.0000 C   0  0  0  0  0  0  0  0  0  0  0  0
    6.3699    0.3999    0.0000 C   0  0  0  0  0  0  0  0  0  0  0  0
    5.7050   -0.0867    0.0000 N   0  0  0  0  0  0  0  0  0  0  0  0
    4.9203    0.1679    0.0000 C   0  0  0  0  0  0  0  0  0  0  0  0
    7.8240    0.1671    0.0000 N   0  0  0  0  0  0  0  0  0  0  0  0
  2  3  1  0
  3  4  2  0
  4  5  1  0
  5  1  1  0
  1  2  2  0
  5  6  1  0
  3  7  1  0
M  END

> <chembl_id>
CHEMBL2071034

> <chembl_pref_name>
None

$$$$

     RDKit          2D

 10 10  0  0  0  0  0  0  0  0999 V2000
    2.5542   -4.1750    0.0000 N   0  0  0  0  0  0  0  0  0  0  0  0
    3.8917   -4.1917    0.0000 N   0  0  0  0  0  0  0  0  0  0  0  0
    3.2125   -4.6667    0.0000 C   0  0  0  0  0  0  0  0  0  0  0  0
    3.6417   -3.4042    0.0000 C   0  0  0  0  0  0  0  0  0  0  0  0
    2.8167   -3.3917    0.0000 C   0  0  0  0  0  0  0  0  0  0  0  0
    6.5250   -1.2667    0.0000 N   0  0  0  0  0  0  0  0  0  0  0  0
    4.0542   -2.6917    0.0000 C   0  0  0  0  0  0  0  0  0  0  0  0
    6.1167   -1.9792    0.0000 C   0  0  0  0  0  0  0  0  0  0  0  0
    4.8792   -2.6917    0.0000 C   0  0  0  0  0  0  0  0  0  0  0  0
    5.2917   -1.9792    0.0000 C   0  0  0  0  0  0  0  0  0  0  0  0
  2  3  2  0
  3  1  1  0
  4  5  2  0
  5  1  1  0
  6  8  1  0
  7  4  1  0
  8 10  1  0
  9  7  1  0
 10  9  1  0
  2  4  1  0
M  END

> <chembl_id>
CHEMBL90019

> <chembl_pref_name>
IMBUTAMINE

$$$$

     RDKit          2D

  8  8  0  0  0  0  0  0  0  0999 V2000
    2.8979   -3.1071    0.0000 N   0  0  0  0  0  0  0  0  0  0  0  0
    3.6040   -2.6958    0.0000 C   0  0  0  0  0  0  0  0  0  0  0  0
    4.3493   -3.0283    0.0000 N   0  0  0  0  0  0  0  0  0  0  0  0
    4.8939   -2.4186    0.0000 N   0  0  0  0  0  0  0  0  0  0  0  0
    4.4825   -1.7128    0.0000 C   0  0  0  0  0  0  0  0  0  0  0  0
    3.6839   -1.8858    0.0000 C   0  0  0  0  0  0  0  0  0  0  0  0
    5.7109   -2.4042    0.0000 C   0  0  0  0  0  0  0  0  0  0  0  0
    6.1320   -3.1045    0.0000 C   0  0  0  0  0  0  0  0  0  0  0  0
  1  2  1  0
  2  3  2  0
  3  4  1  0
  4  5  1  0
  5  6  2  0
  6  2  1  0
  4  7  1  0
  7  8  1  0
M  END

> <chembl_id>
CHEMBL3219112

> <chembl_pref_name>
None

$$$$

     RDKit          2D

  9  9  0  0  0  0  0  0  0  0999 V2000
    3.7875   -4.9542    0.0000 C   0  0  0  0  0  0  0  0  0  0  0  0
    3.7875   -4.1292    0.0000 N   0  0  0  0  0  0  0  0  0  0  0  0
    4.5000   -5.3667    0.0000 N   0  0  0  0  0  0  0  0  0  0  0  0
    3.0667   -5.3667    0.0000 N   0  0  0  0  0  0  0  0  0  0  0  0
    5.2167   -4.1292    0.0000 C   0  0  0  0  0  0  0  0  0  0  0  0
    4.5000   -3.7167    0.0000 C   0  0  0  0  0  0  0  0  0  0  0  0
    5.2167   -4.9542    0.0000 C   0  0  0  0  0  0  0  0  0  0  0  0
    2.3542   -4.9542    0.0000 C   0  0  0  0  0  0  0  0  0  0  0  0
    3.0667   -6.1917    0.0000 C   0  0  0  0  0  0  0  0  0  0  0  0
  2  1  1  0
  3  1  2  0
  4  1  1  0
  5  7  2  0
  6  2  2  0
  7  3  1  0
  8  4  1  0
  9  4  1  0
  6  5  1  0
M  END

> <chembl_id>
CHEMBL123017

> <chembl_pref_name>
None

$$$$

     RDKit          2D

 10 10  0  0  0  0  0  0  0  0999 V2000
    7.5995   -0.9891    0.0000 N   0  0  0  0  0  0  0  0  0  0  0  0
    6.1730   -0.9928    0.0000 C   0  0  0  0  0  0  0  0  0  0  0  0
    6.8859   -1.4047    0.0000 C   0  0  0  0  0  0  0  0  0  0  0  0
    6.8944   -2.2271    0.0000 C   0  0  0  0  0  0  0  0  0  0  0  0
    9.0247   -0.1543    0.0000 N   0  0  0  0  0  0  0  0  0  0  0  0
    8.3117   -0.5713    0.0000 N   0  0  0  0  0  0  0  0  0  0  0  0
    5.4599   -1.4077    0.0000 C   0  0  0  0  0  0  0  0  0  0  0  0
    6.1842   -2.6443    0.0000 C   0  0  0  0  0  0  0  0  0  0  0  0
    5.4626   -2.2343    0.0000 C   0  0  0  0  0  0  0  0  0  0  0  0
    4.7428   -2.6548    0.0000 O   0  0  0  0  0  0  0  0  0  0  0  0
  9  8  1  0
  7  9  2  0
  8  4  2  0
  6  5  2  0
  4  3  1  0
  2  7  1  0
  1  6  2  0
  3  1  1  0
  3  2  2  0
  9 10  1  0
M  CHG  2   5  -1   6   1
M  END

> <chembl_id>
CHEMBL3236182

> <chembl_pref_name>
None

$$$$

     RDKit          2D

 10 10  0  0  0  0  0  0  0  0999 V2000
    4.6694    0.1506    0.0000 N   0  0  0  0  0  0  0  0  0  0  0  0
    3.9563   -0.2644    0.0000 C   0  0  0  0  0  0  0  0  0  0  0  0
    3.9563   -1.0862    0.0000 C   0  0  0  0  0  0  0  0  0  0  0  0
    3.2433   -1.5011    0.0000 C   0  0  0  0  0  0  0  0  0  0  0  0
    2.5303   -1.0862    0.0000 C   0  0  0  0  0  0  0  0  0  0  0  0
    2.5303   -0.2644    0.0000 C   0  0  0  0  0  0  0  0  0  0  0  0
    1.8172    0.1506    0.0000 C   0  0  0  0  0  0  0  0  0  0  0  0
    3.2433    0.1506    0.0000 C   0  0  0  0  0  0  0  0  0  0  0  0
    1.8172   -1.5011    0.0000 N   0  0  0  0  0  0  0  0  0  0  0  0
    4.6694   -1.5011    0.0000 C   0  0  0  0  0  0  0  0  0  0  0  0
  1  2  1  0
  2  3  2  0
  3  4  1  0
  4  5  2  0
  5  6  1  0
  6  7  1  0
  6  8  2  0
  2  8  1  0
  5  9  1  0
  3 10  1  0
M  END

> <chembl_id>
CHEMBL1795410

> <chembl_pref_name>
None

$$$$

     RDKit          2D

  9  9  0  0  0  0  0  0  0  0999 V2000
    2.5056    0.2642    0.0000 N   0  0  0  0  0  0  0  0  0  0  0  0
    1.5112    0.3698    0.0000 C   0  0  0  0  0  0  0  0  0  0  0  0
    1.0122    1.2364    0.0000 C   0  0  0  0  0  0  0  0  0  0  0  0
    0.0340    1.0296    0.0000 C   0  0  0  0  0  0  0  0  0  0  0  0
   -0.0718    0.0352    0.0000 N   0  0  0  0  0  0  0  0  0  0  0  0
   -0.9384   -0.4638    0.0000 C   0  0  0  0  0  0  0  0  0  0  0  0
   -1.8038    0.0372    0.0000 C   0  0  0  0  0  0  0  0  0  0  0  0
   -2.6702   -0.4618    0.0000 O   0  0  0  0  0  0  0  0  0  0  0  0
    0.8414   -0.3726    0.0000 N   0  0  0  0  0  0  0  0  0  0  0  0
  1  2  1  0
  2  3  1  0
  3  4  2  0
  4  5  1  0
  5  6  1  0
  6  7  1  0
  7  8  1  0
  5  9  1  0
  9  2  2  0
M  END

> <chembl_id>
CHEMBL4578084

> <chembl_pref_name>
None

$$$$

     RDKit          2D

  9  9  0  0  0  0  0  0  0  0999 V2000
    0.2438    2.1756    0.0000 C   0  0  0  0  0  0  0  0  0  0  0  0
   -0.6232    1.6774    0.0000 N   0  0  0  0  0  0  0  0  0  0  0  0
   -0.6252    0.6774    0.0000 C   0  0  0  0  0  0  0  0  0  0  0  0
    0.2398    0.1756    0.0000 N   0  0  0  0  0  0  0  0  0  0  0  0
    0.2378   -0.8244    0.0000 C   0  0  0  0  0  0  0  0  0  0  0  0
   -0.6292   -1.3226    0.0000 C   0  0  0  0  0  0  0  0  0  0  0  0
   -1.4942   -0.8208    0.0000 C   0  0  0  0  0  0  0  0  0  0  0  0
   -1.4922    0.1790    0.0000 C   0  0  0  0  0  0  0  0  0  0  0  0
   -2.3572    0.6808    0.0000 N   0  0  0  0  0  0  0  0  0  0  0  0
  1  2  1  0
  2  3  1  0
  3  4  2  0
  4  5  1  0
  5  6  2  0
  6  7  1  0
  7  8  2  0
  8  9  1  0
  8  3  1  0
M  END

> <chembl_id>
CHEMBL4533256

> <chembl_pref_name>
None

$$$$
 
     RDKit          2D

  9  9  0  0  0  0  0  0  0  0999 V2000
   31.7840   -4.8205    0.0000 C   0  0  0  0  0  0  0  0  0  0  0  0
   31.7829   -5.6478    0.0000 C   0  0  0  0  0  0  0  0  0  0  0  0
   32.4977   -6.0607    0.0000 N   0  0  0  0  0  0  0  0  0  0  0  0
   33.2141   -5.6473    0.0000 C   0  0  0  0  0  0  0  0  0  0  0  0
   33.2112   -4.8169    0.0000 C   0  0  0  0  0  0  0  0  0  0  0  0
   32.4958   -4.4077    0.0000 C   0  0  0  0  0  0  0  0  0  0  0  0
   33.9291   -6.0587    0.0000 Cl  0  0  0  0  0  0  0  0  0  0  0  0
   33.9241   -4.4017    0.0000 O   0  0  0  0  0  0  0  0  0  0  0  0
   34.6400   -4.8114    0.0000 C   0  0  0  0  0  0  0  0  0  0  0  0
  1  2  2  0
  2  3  1  0
  3  4  2  0
  4  5  1  0
  5  6  2  0
  6  1  1  0
  4  7  1  0
  5  8  1  0
  8  9  1  0
M  END

> <chembl_id>
CHEMBL4644642

> <chembl_pref_name>
None

$$$$

     RDKit          2D

  9  9  0  0  0  0  0  0  0  0999 V2000
   -4.4670   -0.2324    0.0000 N   0  0  0  0  0  0  0  0  0  0  0  0
   -3.6018   -0.7334    0.0000 C   0  0  0  0  0  0  0  0  0  0  0  0
   -2.7352   -0.2344    0.0000 C   0  0  0  0  0  0  0  0  0  0  0  0
   -1.8698   -0.7354    0.0000 C   0  0  0  0  0  0  0  0  0  0  0  0
   -1.0034   -0.2364    0.0000 C   0  0  0  0  0  0  0  0  0  0  0  0
   -0.8976    0.7580    0.0000 C   0  0  0  0  0  0  0  0  0  0  0  0
    0.0808    0.9650    0.0000 C   0  0  0  0  0  0  0  0  0  0  0  0
    0.5798    0.0982    0.0000 C   0  0  0  0  0  0  0  0  0  0  0  0
   -0.0902   -0.6442    0.0000 S   0  0  0  0  0  0  0  0  0  0  0  0
  1  2  1  0
  2  3  1  0
  3  4  1  0
  4  5  1  0
  5  6  2  0
  6  7  1  0
  7  8  2  0
  8  9  1  0
  9  5  1  0
M  END

> <chembl_id>
CHEMBL4586110

> <chembl_pref_name>
None

$$$$

     RDKit          2D

 11 11  0  0  0  0  0  0  0  0999 V2000
   -3.4566  -16.2051    0.0000 C   0  0  0  0  0  0  0  0  0  0  0  0
   -3.0441  -15.4892    0.0000 O   0  0  0  0  0  0  0  0  0  0  0  0
   -2.2191  -15.4892    0.0000 C   0  0  0  0  0  0  0  0  0  0  0  0
   -1.8066  -14.7775    0.0000 C   0  0  0  0  0  0  0  0  0  0  0  0
   -0.9816  -14.7775    0.0000 C   0  0  0  0  0  0  0  0  0  0  0  0
   -0.5691  -15.4892    0.0000 C   0  0  0  0  0  0  0  0  0  0  0  0
    0.2559  -15.4892    0.0000 C   0  0  0  0  0  0  0  0  0  0  0  0
    0.6684  -14.7775    0.0000 C   0  0  0  0  0  0  0  0  0  0  0  0
    1.4934  -14.7775    0.0000 C   0  0  0  0  0  0  0  0  0  0  0  0
   -0.9816  -16.2051    0.0000 C   0  0  0  0  0  0  0  0  0  0  0  0
   -1.8066  -16.2051    0.0000 C   0  0  0  0  0  0  0  0  0  0  0  0
  1  2  1  0
  2  3  1  0
  3  4  1  0
  4  5  2  0
  5  6  1  0
  6  7  1  0
  7  8  2  0
  8  9  1  0
  6 10  2  0
 10 11  1  0
  3 11  2  0
M  END

> <chembl_id>
CHEMBL452630

> <chembl_pref_name>
ANETHOLE

$$$$

     RDKit          2D

  7  7  0  0  0  0  0  0  0  0999 V2000
    7.7669   -4.9131    0.0000 N   0  0  0  0  0  0  0  0  0  0  0  0
    8.0184   -5.6975    0.0000 N   0  0  0  0  0  0  0  0  0  0  0  0
    7.3527   -6.1794    0.0000 C   0  0  0  0  0  0  0  0  0  0  0  0
    6.6868   -5.6975    0.0000 C   0  0  0  0  0  0  0  0  0  0  0  0
    6.9425   -4.9131    0.0000 C   0  0  0  0  0  0  0  0  0  0  0  0
    7.3527   -7.0075    0.0000 C   0  0  0  0  0  0  0  0  0  0  0  0
    6.6354   -7.4216    0.0000 Cl  0  0  0  0  0  0  0  0  0  0  0  0
  1  2  1  0
  2  3  2  0
  3  4  1  0
  4  5  2  0
  1  5  1  0
  3  6  1  0
  6  7  1  0
M  END

> <chembl_id>
CHEMBL3275946

> <chembl_pref_name>
None

$$$$

     RDKit          2D

 10 10  0  0  0  0  0  0  0  0999 V2000
   -2.0576   -1.2684    0.0000 N   0  0  0  0  0  0  0  0  0  0  0  0
   -1.4688   -0.4600    0.0000 C   0  0  0  0  0  0  0  0  0  0  0  0
   -0.4744   -0.5656    0.0000 C   0  0  0  0  0  0  0  0  0  0  0  0
    0.1956    0.1768    0.0000 C   0  0  0  0  0  0  0  0  0  0  0  0
    1.1086   -0.2310    0.0000 C   0  0  0  0  0  0  0  0  0  0  0  0
    1.9752    0.2680    0.0000 C   0  0  0  0  0  0  0  0  0  0  0  0
    2.8406   -0.2330    0.0000 N   0  0  0  0  0  0  0  0  0  0  0  0
    1.9764    1.2680    0.0000 O   0  0  0  0  0  0  0  0  0  0  0  0
    1.0030   -1.2254    0.0000 C   0  0  0  0  0  0  0  0  0  0  0  0
    0.0246   -1.4322    0.0000 O   0  0  0  0  0  0  0  0  0  0  0  0
  1  2  1  0
  2  3  1  0
  3  4  2  0
  4  5  1  0
  5  6  1  0
  6  7  1  0
  6  8  2  0
  5  9  2  0
  9 10  1  0
 10  3  1  0
M  END

> <chembl_id>
CHEMBL4520383

> <chembl_pref_name>
None

$$$$

     RDKit          2D

 10 10  0  0  0  0  0  0  0  0999 V2000
    1.4700    2.8012    0.0000 C   0  0  0  0  0  0  0  0  0  0  0  0
    1.4692    1.8012    0.0000 C   0  0  0  0  0  0  0  0  0  0  0  0
    0.6028    1.3018    0.0000 C   0  0  0  0  0  0  0  0  0  0  0  0
    0.6020    0.3018    0.0000 C   0  0  0  0  0  0  0  0  0  0  0  0
   -0.2644   -0.1974    0.0000 C   0  0  0  0  0  0  0  0  0  0  0  0
   -1.1300    0.3032    0.0000 C   0  0  0  0  0  0  0  0  0  0  0  0
   -1.9964   -0.1960    0.0000 O   0  0  0  0  0  0  0  0  0  0  0  0
   -2.8620    0.3046    0.0000 C   0  0  0  0  0  0  0  0  0  0  0  0
   -1.1292    1.3032    0.0000 N   0  0  0  0  0  0  0  0  0  0  0  0
   -0.2628    1.8026    0.0000 C   0  0  0  0  0  0  0  0  0  0  0  0
  1  2  2  0
  2  3  1  0
  3  4  2  0
  4  5  1  0
  5  6  2  0
  6  7  1  0
  7  8  1  0
  6  9  1  0
  9 10  2  0
 10  3  1  0
M  END

> <chembl_id>
CHEMBL4547650

> <chembl_pref_name>
None

$$$$

     RDKit          2D

  9  9  0  0  0  0  0  0  0  0999 V2000
   -3.6702   -0.4618    0.0000 C   0  0  0  0  0  0  0  0  0  0  0  0
   -2.8038    0.0372    0.0000 N   0  0  0  0  0  0  0  0  0  0  0  0
   -1.9384   -0.4638    0.0000 C   0  0  0  0  0  0  0  0  0  0  0  0
   -1.0718    0.0352    0.0000 C   0  0  0  0  0  0  0  0  0  0  0  0
   -0.9660    1.0296    0.0000 N   0  0  0  0  0  0  0  0  0  0  0  0
    0.0122    1.2364    0.0000 N   0  0  0  0  0  0  0  0  0  0  0  0
    0.5112    0.3698    0.0000 C   0  0  0  0  0  0  0  0  0  0  0  0
    1.5056    0.2642    0.0000 C   0  0  0  0  0  0  0  0  0  0  0  0
   -0.1586   -0.3726    0.0000 O   0  0  0  0  0  0  0  0  0  0  0  0
  1  2  1  0
  2  3  1  0
  3  4  1  0
  4  5  2  0
  5  6  1  0
  6  7  2  0
  7  8  1  0
  7  9  1  0
  9  4  1  0
M  END

> <chembl_id>
CHEMBL4516454

> <chembl_pref_name>
None

$$$$

     RDKit          2D

  9  9  0  0  0  0  0  0  0  0999 V2000
   -2.6662   -0.4438    0.0000 C   0  0  0  0  0  0  0  0  0  0  0  0
   -1.6712   -0.3432    0.0000 C   0  0  0  0  0  0  0  0  0  0  0  0
   -1.0050   -1.0890    0.0000 C   0  0  0  0  0  0  0  0  0  0  0  0
   -0.0898   -0.6858    0.0000 C   0  0  0  0  0  0  0  0  0  0  0  0
    0.7742   -1.1892    0.0000 C   0  0  0  0  0  0  0  0  0  0  0  0
    1.6422   -0.6928    0.0000 N   0  0  0  0  0  0  0  0  0  0  0  0
   -0.1906    0.3090    0.0000 C   0  0  0  0  0  0  0  0  0  0  0  0
    0.5552    0.9752    0.0000 C   0  0  0  0  0  0  0  0  0  0  0  0
   -1.1678    0.5208    0.0000 S   0  0  0  0  0  0  0  0  0  0  0  0
  1  2  1  0
  2  3  2  0
  3  4  1  0
  4  5  1  0
  5  6  1  0
  4  7  2  0
  7  8  1  0
  7  9  1  0
  9  2  1  0
M  END

> <chembl_id>
CHEMBL4553715

> <chembl_pref_name>
None

$$$$

     RDKit          2D

 10 10  0  0  0  0  0  0  0  0999 V2000
    1.0504    2.1820    0.0000 C   0  0  0  0  0  0  0  0  0  0  0  0
    1.0496    1.1820    0.0000 C   0  0  0  0  0  0  0  0  0  0  0  0
    1.9152    0.6812    0.0000 N   0  0  0  0  0  0  0  0  0  0  0  0
    0.1832    0.6826    0.0000 C   0  0  0  0  0  0  0  0  0  0  0  0
   -0.6824    1.1834    0.0000 C   0  0  0  0  0  0  0  0  0  0  0  0
   -1.5488    0.6840    0.0000 C   0  0  0  0  0  0  0  0  0  0  0  0
   -1.5496   -0.3160    0.0000 C   0  0  0  0  0  0  0  0  0  0  0  0
   -2.4160   -0.8152    0.0000 F   0  0  0  0  0  0  0  0  0  0  0  0
   -0.6840   -0.8166    0.0000 C   0  0  0  0  0  0  0  0  0  0  0  0
    0.1824   -0.3174    0.0000 N   0  0  0  0  0  0  0  0  0  0  0  0
  2  1  1  1
  2  3  1  0
  2  4  1  0
  4  5  2  0
  5  6  1  0
  6  7  2  0
  7  8  1  0
  7  9  1  0
  9 10  2  0
 10  4  1  0
M  END

> <chembl_id>
CHEMBL4550509

> <chembl_pref_name>
None

$$$$

     RDKit          2D

  9  9  0  0  0  0  0  0  0  0999 V2000
   -3.6702   -0.4618    0.0000 C   0  0  0  0  0  0  0  0  0  0  0  0
   -2.8038    0.0372    0.0000 N   0  0  0  0  0  0  0  0  0  0  0  0
   -1.9384   -0.4638    0.0000 C   0  0  0  0  0  0  0  0  0  0  0  0
   -1.0718    0.0352    0.0000 C   0  0  0  0  0  0  0  0  0  0  0  0
   -0.9660    1.0296    0.0000 C   0  0  0  0  0  0  0  0  0  0  0  0
    0.0122    1.2364    0.0000 N   0  0  0  0  0  0  0  0  0  0  0  0
    0.5112    0.3698    0.0000 C   0  0  0  0  0  0  0  0  0  0  0  0
    1.5056    0.2642    0.0000 C   0  0  0  0  0  0  0  0  0  0  0  0
   -0.1586   -0.3726    0.0000 S   0  0  0  0  0  0  0  0  0  0  0  0
  1  2  1  0
  2  3  1  0
  3  4  1  0
  4  5  2  0
  5  6  1  0
  6  7  2  0
  7  8  1  0
  7  9  1  0
  9  4  1  0
M  END

> <chembl_id>
CHEMBL4538125

> <chembl_pref_name>
None

$$$$

     RDKit          2D

 10 10  0  0  0  0  0  0  0  0999 V2000
    0.9764    1.2680    0.0000 C   0  0  0  0  0  0  0  0  0  0  0  0
    0.9752    0.2680    0.0000 C   0  0  0  0  0  0  0  0  0  0  0  0
    1.8406   -0.2330    0.0000 C   0  0  0  0  0  0  0  0  0  0  0  0
    0.1086   -0.2310    0.0000 C   0  0  0  0  0  0  0  0  0  0  0  0
   -0.8044    0.1768    0.0000 C   0  0  0  0  0  0  0  0  0  0  0  0
   -1.4744   -0.5656    0.0000 C   0  0  0  0  0  0  0  0  0  0  0  0
   -2.4688   -0.4600    0.0000 C   0  0  0  0  0  0  0  0  0  0  0  0
   -3.0576   -1.2684    0.0000 N   0  0  0  0  0  0  0  0  0  0  0  0
   -0.9754   -1.4322    0.0000 O   0  0  0  0  0  0  0  0  0  0  0  0
    0.0030   -1.2254    0.0000 N   0  0  0  0  0  0  0  0  0  0  0  0
  1  2  1  0
  2  3  1  0
  2  4  1  0
  4  5  1  0
  5  6  2  0
  6  7  1  0
  7  8  1  0
  6  9  1  0
  9 10  1  0
 10  4  2  0
M  END

> <chembl_id>
CHEMBL4528004

> <chembl_pref_name>
None

$$$$

     RDKit          2D

 10 10  0  0  0  0  0  0  0  0999 V2000
    2.8148   -0.2020    0.0000 C   0  0  0  0  0  0  0  0  0  0  0  0
    1.9470    0.2948    0.0000 C   0  0  0  0  0  0  0  0  0  0  0  0
    1.9434    1.2948    0.0000 O   0  0  0  0  0  0  0  0  0  0  0  0
    1.0828   -0.2082    0.0000 C   0  0  0  0  0  0  0  0  0  0  0  0
    1.0864   -1.2082    0.0000 C   0  0  0  0  0  0  0  0  0  0  0  0
    0.2222   -1.7114    0.0000 C   0  0  0  0  0  0  0  0  0  0  0  0
   -0.6456   -1.2144    0.0000 N   0  0  0  0  0  0  0  0  0  0  0  0
   -0.6492   -0.2144    0.0000 C   0  0  0  0  0  0  0  0  0  0  0  0
   -1.5170    0.2824    0.0000 C   0  0  0  0  0  0  0  0  0  0  0  0
    0.2150    0.2886    0.0000 N   0  0  0  0  0  0  0  0  0  0  0  0
  1  2  1  0
  2  3  2  0
  2  4  1  0
  4  5  2  0
  5  6  1  0
  6  7  2  0
  7  8  1  0
  8  9  1  0
  8 10  2  0
 10  4  1  0
M  END

> <chembl_id>
CHEMBL4583043

> <chembl_pref_name>
None

$$$$

     RDKit          2D

  9  9  0  0  0  0  0  0  0  0999 V2000
   -1.1006    1.3602    0.0000 C   0  0  0  0  0  0  0  0  0  0  0  0
   -0.9428    0.3728    0.0000 N   0  0  0  0  0  0  0  0  0  0  0  0
   -1.6490   -0.3352    0.0000 N   0  0  0  0  0  0  0  0  0  0  0  0
   -1.1940   -1.2256    0.0000 C   0  0  0  0  0  0  0  0  0  0  0  0
   -0.2066   -1.0680    0.0000 C   0  0  0  0  0  0  0  0  0  0  0  0
   -0.0514   -0.0802    0.0000 C   0  0  0  0  0  0  0  0  0  0  0  0
    0.8392    0.3750    0.0000 C   0  0  0  0  0  0  0  0  0  0  0  0
    1.6784   -0.1686    0.0000 N   0  0  0  0  0  0  0  0  0  0  0  0
    0.8904    1.3736    0.0000 O   0  0  0  0  0  0  0  0  0  0  0  0
  1  2  1  0
  2  3  1  0
  3  4  2  0
  4  5  1  0
  5  6  2  0
  6  7  1  0
  7  8  1  0
  7  9  2  0
  6  2  1  0
M  END

> <chembl_id>
CHEMBL4591091

> <chembl_pref_name>
None

$$$$

     RDKit          2D

  9  9  0  0  0  0  0  0  0  0999 V2000
   -2.6638   -0.6644    0.0000 C   0  0  0  0  0  0  0  0  0  0  0  0
   -1.7972   -0.1654    0.0000 C   0  0  0  0  0  0  0  0  0  0  0  0
   -1.7958    0.8346    0.0000 N   0  0  0  0  0  0  0  0  0  0  0  0
   -0.9318   -0.6664    0.0000 C   0  0  0  0  0  0  0  0  0  0  0  0
   -0.0652   -0.1674    0.0000 N   0  0  0  0  0  0  0  0  0  0  0  0
    0.0404    0.8268    0.0000 C   0  0  0  0  0  0  0  0  0  0  0  0
    1.0188    1.0338    0.0000 C   0  0  0  0  0  0  0  0  0  0  0  0
    1.5178    0.1672    0.0000 C   0  0  0  0  0  0  0  0  0  0  0  0
    0.8480   -0.5752    0.0000 N   0  0  0  0  0  0  0  0  0  0  0  0
  1  2  1  0
  2  3  1  0
  2  4  1  0
  4  5  1  0
  5  6  1  0
  6  7  2  0
  7  8  1  0
  8  9  2  0
  9  5  1  0
M  END

> <chembl_id>
CHEMBL4589812

> <chembl_pref_name>
None

$$$$

     RDKit          2D

  9  9  0  0  0  0  0  0  0  0999 V2000
    0.2438    2.1756    0.0000 C   0  0  0  0  0  0  0  0  0  0  0  0
   -0.6232    1.6774    0.0000 S   0  0  0  0  0  0  0  0  0  0  0  0
   -0.6252    0.6774    0.0000 C   0  0  0  0  0  0  0  0  0  0  0  0
    0.2398    0.1756    0.0000 C   0  0  0  0  0  0  0  0  0  0  0  0
    0.2378   -0.8244    0.0000 C   0  0  0  0  0  0  0  0  0  0  0  0
   -0.6292   -1.3226    0.0000 N   0  0  0  0  0  0  0  0  0  0  0  0
   -1.4942   -0.8208    0.0000 C   0  0  0  0  0  0  0  0  0  0  0  0
   -1.4922    0.1790    0.0000 C   0  0  0  0  0  0  0  0  0  0  0  0
   -2.3572    0.6808    0.0000 N   0  0  0  0  0  0  0  0  0  0  0  0
  1  2  1  0
  2  3  1  0
  3  4  2  0
  4  5  1  0
  5  6  2  0
  6  7  1  0
  7  8  2  0
  8  9  1  0
  8  3  1  0
M  END

> <chembl_id>
CHEMBL4536641

> <chembl_pref_name>
None

$$$$

     RDKit          2D

 10 10  0  0  0  0  0  0  0  0999 V2000
    0.9875   -1.4292    0.0000 N   0  0  0  0  0  0  0  0  0  0  0  0
    1.5042   -1.7292    0.0000 C   0  0  0  0  0  0  0  0  0  0  0  0
    4.0917   -2.0250    0.0000 N   0  0  0  0  0  0  0  0  0  0  0  0
    2.0250   -2.0292    0.0000 C   0  0  0  0  0  0  0  0  0  0  0  0
    2.5417   -1.7292    0.0000 C   0  0  0  0  0  0  0  0  0  0  0  0
    3.0542   -2.0292    0.0000 C   0  0  0  0  0  0  0  0  0  0  0  0
    3.5750   -1.7292    0.0000 C   0  0  0  0  0  0  0  0  0  0  0  0
    2.5417   -2.9292    0.0000 C   0  0  0  0  0  0  0  0  0  0  0  0
    2.0250   -2.6292    0.0000 C   0  0  0  0  0  0  0  0  0  0  0  0
    3.0542   -2.6292    0.0000 C   0  0  0  0  0  0  0  0  0  0  0  0
  2  1  3  0
  3  7  1  0
  4  2  1  0
  5  4  1  0
  6  5  2  0
  7  6  1  0
  8  9  1  0
  9  4  2  0
 10  8  2  0
 10  6  1  0
M  END

> <chembl_id>
CHEMBL1178160

> <chembl_pref_name>
None

$$$$

     RDKit          2D

  9  9  0  0  0  0  0  0  0  0999 V2000
    2.6784   -0.1686    0.0000 C   0  0  0  0  0  0  0  0  0  0  0  0
    1.8392    0.3750    0.0000 C   0  0  0  0  0  0  0  0  0  0  0  0
    1.8904    1.3736    0.0000 O   0  0  0  0  0  0  0  0  0  0  0  0
    0.9486   -0.0802    0.0000 C   0  0  0  0  0  0  0  0  0  0  0  0
    0.7934   -1.0680    0.0000 C   0  0  0  0  0  0  0  0  0  0  0  0
   -0.1940   -1.2256    0.0000 N   0  0  0  0  0  0  0  0  0  0  0  0
   -0.6490   -0.3352    0.0000 N   0  0  0  0  0  0  0  0  0  0  0  0
    0.0572    0.3728    0.0000 N   0  0  0  0  0  0  0  0  0  0  0  0
   -0.1006    1.3602    0.0000 C   0  0  0  0  0  0  0  0  0  0  0  0
  1  2  1  0
  2  3  2  0
  2  4  1  0
  4  5  2  0
  5  6  1  0
  6  7  2  0
  7  8  1  0
  8  9  1  0
  8  4  1  0
M  END

> <chembl_id>
CHEMBL4577201

> <chembl_pref_name>
None

$$$$

     RDKit          2D

  9  9  0  0  0  0  0  0  0  0999 V2000
    0.3554   -2.5902    0.0000 N   0  0  0  0  0  0  0  0  0  0  0  0
   -0.5116   -2.0920    0.0000 C   0  0  0  0  0  0  0  0  0  0  0  0
   -0.5136   -1.0920    0.0000 C   0  0  0  0  0  0  0  0  0  0  0  0
    0.3514   -0.5904    0.0000 C   0  0  0  0  0  0  0  0  0  0  0  0
    0.3494    0.4096    0.0000 C   0  0  0  0  0  0  0  0  0  0  0  0
   -0.5176    0.9080    0.0000 C   0  0  0  0  0  0  0  0  0  0  0  0
   -1.3826    0.4062    0.0000 C   0  0  0  0  0  0  0  0  0  0  0  0
   -2.2498    0.9044    0.0000 O   0  0  0  0  0  0  0  0  0  0  0  0
   -1.3806   -0.5938    0.0000 N   0  0  0  0  0  0  0  0  0  0  0  0
  1  2  1  0
  2  3  1  0
  3  4  2  0
  4  5  1  0
  5  6  2  0
  6  7  1  0
  7  8  2  0
  7  9  1  0
  9  3  1  0
M  END

> <chembl_id>
CHEMBL4550669

> <chembl_pref_name>
None

$$$$

     RDKit          2D

 10 10  0  0  0  0  0  0  0  0999 V2000
    0.8350    1.4606    0.0000 O   0  0  0  0  0  0  0  0  0  0  0  0
    0.8314    0.4606    0.0000 C   0  0  0  0  0  0  0  0  0  0  0  0
    1.6956   -0.0424    0.0000 C   0  0  0  0  0  0  0  0  0  0  0  0
    1.6920   -1.0424    0.0000 C   0  0  0  0  0  0  0  0  0  0  0  0
    0.8242   -1.5394    0.0000 C   0  0  0  0  0  0  0  0  0  0  0  0
   -0.0400   -1.0362    0.0000 C   0  0  0  0  0  0  0  0  0  0  0  0
   -0.0364   -0.0362    0.0000 N   0  0  0  0  0  0  0  0  0  0  0  0
   -0.9006    0.4668    0.0000 C   0  0  0  0  0  0  0  0  0  0  0  0
   -1.7684   -0.0300    0.0000 C   0  0  0  0  0  0  0  0  0  0  0  0
   -2.6326    0.4730    0.0000 O   0  0  0  0  0  0  0  0  0  0  0  0
  1  2  2  0
  2  3  1  0
  3  4  2  0
  4  5  1  0
  5  6  2  0
  6  7  1  0
  7  8  1  0
  8  9  1  0
  9 10  1  0
  7  2  1  0
M  END

> <chembl_id>
CHEMBL4583371

> <chembl_pref_name>
None

$$$$

     RDKit          2D

 10 10  0  0  0  0  0  0  0  0999 V2000
    1.8550   -0.1526    0.0000 C   0  0  0  0  0  0  0  0  0  0  0  0
    0.9896    0.3484    0.0000 O   0  0  0  0  0  0  0  0  0  0  0  0
    0.1230   -0.1506    0.0000 C   0  0  0  0  0  0  0  0  0  0  0  0
   -0.7900    0.2572    0.0000 C   0  0  0  0  0  0  0  0  0  0  0  0
   -0.9970    1.2356    0.0000 N   0  0  0  0  0  0  0  0  0  0  0  0
   -1.4600   -0.4852    0.0000 C   0  0  0  0  0  0  0  0  0  0  0  0
   -2.4544   -0.3796    0.0000 C   0  0  0  0  0  0  0  0  0  0  0  0
   -0.9610   -1.3518    0.0000 N   0  0  0  0  0  0  0  0  0  0  0  0
    0.0174   -1.1450    0.0000 N   0  0  0  0  0  0  0  0  0  0  0  0
    0.7598   -1.8148    0.0000 C   0  0  0  0  0  0  0  0  0  0  0  0
  1  2  1  0
  2  3  1  0
  3  4  2  0
  4  5  1  0
  4  6  1  0
  6  7  1  0
  6  8  2  0
  8  9  1  0
  9 10  1  0
  9  3  1  0
M  END

> <chembl_id>
CHEMBL4516305

> <chembl_pref_name>
None

$$$$

     RDKit          2D

  9  9  0  0  0  0  0  0  0  0999 V2000
   -3.5333   -0.7917    0.0000 C   0  0  0  0  0  0  0  0  0  0  0  0
   -2.8208   -1.2042    0.0000 C   0  0  0  0  0  0  0  0  0  0  0  0
   -2.1083   -0.7917    0.0000 N   0  0  0  0  0  0  0  0  0  0  0  0
   -3.5333    0.0375    0.0000 C   0  0  0  0  0  0  0  0  0  0  0  0
   -2.8125   -2.0292    0.0000 N   0  0  0  0  0  0  0  0  0  0  0  0
   -2.1083    0.0375    0.0000 C   0  0  0  0  0  0  0  0  0  0  0  0
   -2.8208    0.4500    0.0000 C   0  0  0  0  0  0  0  0  0  0  0  0
   -4.2458    0.4458    0.0000 O   0  0  0  0  0  0  0  0  0  0  0  0
   -4.2458    1.2708    0.0000 C   0  0  0  0  0  0  0  0  0  0  0  0
  2  1  1  0
  3  2  2  0
  4  1  2  0
  5  2  1  0
  6  7  2  0
  7  4  1  0
  8  4  1  0
  9  8  1  0
  3  6  1  0
M  END

> <chembl_id>
CHEMBL113793

> <chembl_pref_name>
None

$$$$

     RDKit          2D

 11 12  0  0  0  0  0  0  0  0999 V2000
   -2.3337  -21.8952    0.0000 C   0  0  0  0  0  0  0  0  0  0  0  0
   -2.3349  -20.5560    0.0000 N   0  0  0  0  0  0  0  0  0  0  0  0
   -2.8177  -21.2262    0.0000 C   0  0  0  0  0  0  0  0  0  0  0  0
   -2.5921  -19.7702    0.0000 C   0  0  0  0  0  0  0  0  0  0  0  0
   -3.6446  -21.2271    0.0000 O   0  0  0  0  0  0  0  0  0  0  0  0
   -1.5461  -20.8122    0.0000 C   0  0  0  0  0  0  0  0  0  0  0  0
   -1.5501  -21.6373    0.0000 C   0  0  0  0  0  0  0  0  0  0  0  0
   -0.8386  -22.0515    0.0000 C   0  0  0  0  0  0  0  0  0  0  0  0
   -0.1228  -21.6417    0.0000 C   0  0  0  0  0  0  0  0  0  0  0  0
   -0.1228  -20.8134    0.0000 C   0  0  0  0  0  0  0  0  0  0  0  0
   -0.8348  -20.4030    0.0000 C   0  0  0  0  0  0  0  0  0  0  0  0
  3  5  2  0
  6  2  1  0
  2  3  1  0
  6  7  2  0
  3  1  1  0
  7  8  1  0
  1  7  1  0
  8  9  2  0
  2  4  1  0
  9 10  1  0
 10 11  2  0
 11  6  1  0
M  END

> <chembl_id>
CHEMBL41326

> <chembl_pref_name>
None

$$$$

     RDKit          2D

  8  8  0  0  0  0  0  0  0  0999 V2000
   -2.8662    0.1686    0.0000 C   0  0  0  0  0  0  0  0  0  0  0  0
   -2.0010   -0.3324    0.0000 S   0  0  0  0  0  0  0  0  0  0  0  0
   -1.1344    0.1666    0.0000 C   0  0  0  0  0  0  0  0  0  0  0  0
   -1.0286    1.1610    0.0000 N   0  0  0  0  0  0  0  0  0  0  0  0
   -0.0504    1.3678    0.0000 N   0  0  0  0  0  0  0  0  0  0  0  0
    0.4486    0.5012    0.0000 C   0  0  0  0  0  0  0  0  0  0  0  0
    1.4430    0.3956    0.0000 C   0  0  0  0  0  0  0  0  0  0  0  0
   -0.2212   -0.2412    0.0000 S   0  0  0  0  0  0  0  0  0  0  0  0
  1  2  1  0
  2  3  1  0
  3  4  2  0
  4  5  1  0
  5  6  2  0
  6  7  1  0
  6  8  1  0
  8  3  1  0
M  END

> <chembl_id>
CHEMBL4571907

> <chembl_pref_name>
None

$$$$

     RDKit          2D

 10 11  0  0  0  0  0  0  0  0999 V2000
   -0.7206    1.3188    0.0000 C   0  0  0  0  0  0  0  0  0  0  0  0
   -0.7198    0.3188    0.0000 C   0  0  0  0  0  0  0  0  0  0  0  0
   -1.7198    0.3180    0.0000 N   0  0  0  0  0  0  0  0  0  0  0  0
   -0.7190   -0.6812    0.0000 C   0  0  0  0  0  0  0  0  0  0  0  0
    0.2810   -0.6804    0.0000 C   0  0  0  0  0  0  0  0  0  0  0  0
    1.1474   -1.1798    0.0000 C   0  0  0  0  0  0  0  0  0  0  0  0
    2.0130   -0.6790    0.0000 C   0  0  0  0  0  0  0  0  0  0  0  0
    2.0122    0.3210    0.0000 C   0  0  0  0  0  0  0  0  0  0  0  0
    1.1458    0.8202    0.0000 C   0  0  0  0  0  0  0  0  0  0  0  0
    0.2802    0.3196    0.0000 C   0  0  0  0  0  0  0  0  0  0  0  0
  1  2  1  0
  2  3  1  0
  2  4  1  0
  4  5  1  0
  5  6  2  0
  6  7  1  0
  7  8  2  0
  8  9  1  0
  9 10  2  0
 10  2  1  0
 10  5  1  0
M  END

> <chembl_id>
CHEMBL4521472

> <chembl_pref_name>
None

$$$$

     RDKit          2D

 11 11  0  0  0  0  0  0  0  0999 V2000
   10.3043  -10.6400    0.0000 C   0  0  0  0  0  0  0  0  0  0  0  0
   10.3031  -11.4595    0.0000 C   0  0  0  0  0  0  0  0  0  0  0  0
   11.0112  -11.8685    0.0000 C   0  0  0  0  0  0  0  0  0  0  0  0
   11.7208  -11.4590    0.0000 C   0  0  0  0  0  0  0  0  0  0  0  0
   11.7180  -10.6364    0.0000 C   0  0  0  0  0  0  0  0  0  0  0  0
   11.0094  -10.2311    0.0000 C   0  0  0  0  0  0  0  0  0  0  0  0
    9.5951  -11.8675    0.0000 O   0  0  0  0  0  0  0  0  0  0  0  0
    8.8877  -11.4584    0.0000 C   0  0  0  0  0  0  0  0  0  0  0  0
   12.4242  -10.2251    0.0000 C   0  0  0  0  0  0  0  0  0  0  0  0
   13.1334  -10.6310    0.0000 C   0  0  0  0  0  0  0  0  0  0  0  0
   13.8440  -11.0334    0.0000 N   0  0  0  0  0  0  0  0  0  0  0  0
  1  2  2  0
  2  3  1  0
  3  4  2  0
  4  5  1  0
  5  6  2  0
  6  1  1  0
  2  7  1  0
  7  8  1  0
  5  9  1  0
  9 10  1  0
 10 11  3  0
M  END

> <chembl_id>
CHEMBL2228958

> <chembl_pref_name>
3-METHOXYPHENYLACETONITRILE

$$$$

     RDKit          2D

  7  7  0  0  0  0  0  0  0  0999 V2000
   -3.0796    0.1303    0.0000 N   0  0  0  0  0  0  0  0  0  0  0  0
   -2.4186    0.6240    0.0000 C   0  0  0  0  0  0  0  0  0  0  0  0
   -2.6839    1.4052    0.0000 C   0  0  0  0  0  0  0  0  0  0  0  0
   -3.5089    1.3944    0.0000 C   0  0  0  0  0  0  0  0  0  0  0  0
   -3.7534    0.6064    0.0000 N   0  0  0  0  0  0  0  0  0  0  0  0
   -4.0023    2.0550    0.0000 C   0  0  0  0  0  0  0  0  0  0  0  0
   -1.6310    0.3796    0.0000 C   0  0  0  0  0  0  0  0  0  0  0  0
  2  3  1  0
  3  4  2  0
  4  5  1  0
  5  1  1  0
  1  2  2  0
  4  6  1  0
  2  7  1  0
M  END

> <chembl_id>
CHEMBL1828957

> <chembl_pref_name>
None

$$$$

     RDKit          2D

 10 10  0  0  0  0  0  0  0  0999 V2000
    7.8891  -14.1485    0.0000 C   0  0  0  0  0  0  0  0  0  0  0  0
    8.3016  -13.4340    0.0000 C   0  0  0  0  0  0  0  0  0  0  0  0
    8.7141  -12.7195    0.0000 C   0  0  0  0  0  0  0  0  0  0  0  0
    8.3016  -14.8630    0.0000 O   0  0  0  0  0  0  0  0  0  0  0  0
    7.0641  -14.1485    0.0000 C   0  0  0  0  0  0  0  0  0  0  0  0
    6.6516  -14.8630    0.0000 C   0  0  0  0  0  0  0  0  0  0  0  0
    5.8266  -14.8630    0.0000 C   0  0  0  0  0  0  0  0  0  0  0  0
    5.4141  -14.1485    0.0000 C   0  0  0  0  0  0  0  0  0  0  0  0
    5.8266  -13.4340    0.0000 C   0  0  0  0  0  0  0  0  0  0  0  0
    6.6516  -13.4340    0.0000 C   0  0  0  0  0  0  0  0  0  0  0  0
  1  2  1  0
  2  3  3  0
  1  4  1  0
  5  6  1  0
  6  7  2  0
  7  8  1  0
  8  9  2  0
  9 10  1  0
  5 10  2  0
  1  5  1  0
M  END

> <chembl_id>
CHEMBL2323854

> <chembl_pref_name>
None

$$$$

     RDKit          2D

  9  9  0  0  0  0  0  0  0  0999 V2000
   10.3573   -9.0658    0.0000 N   0  0  0  0  0  0  0  0  0  0  0  0
   11.1822   -9.0658    0.0000 C   0  0  0  0  0  0  0  0  0  0  0  0
   11.4390   -8.2818    0.0000 C   0  0  0  0  0  0  0  0  0  0  0  0
   10.7697   -7.7950    0.0000 C   0  0  0  0  0  0  0  0  0  0  0  0
   10.1048   -8.2818    0.0000 N   0  0  0  0  0  0  0  0  0  0  0  0
   12.2273   -8.0260    0.0000 C   0  0  0  0  0  0  0  0  0  0  0  0
   12.8395   -8.5789    0.0000 O   0  0  0  0  0  0  0  0  0  0  0  0
   12.3999   -7.2193    0.0000 O   0  0  0  0  0  0  0  0  0  0  0  0
    9.3201   -8.0272    0.0000 C   0  0  0  0  0  0  0  0  0  0  0  0
  4  5  1  0
  5  1  1  0
  1  2  2  0
  2  3  1  0
  6  7  1  0
  6  8  2  0
  3  6  1  0
  3  4  2  0
  5  9  1  0
M  END

> <chembl_id>
CHEMBL393429

> <chembl_pref_name>
None

$$$$
 
     RDKit          2D

 10 11  0  0  0  0  0  0  0  0999 V2000
   12.3122  -11.1750    0.0000 C   0  0  0  0  0  0  0  0  0  0  0  0
   13.0202  -10.7678    0.0000 C   0  0  0  0  0  0  0  0  0  0  0  0
   13.7285  -11.1745    0.0000 C   0  0  0  0  0  0  0  0  0  0  0  0
   13.7285  -11.9939    0.0000 C   0  0  0  0  0  0  0  0  0  0  0  0
   13.0227  -12.4046    0.0000 C   0  0  0  0  0  0  0  0  0  0  0  0
   12.3122  -11.9992    0.0000 N   0  0  0  0  0  0  0  0  0  0  0  0
   11.6001  -12.4091    0.0000 C   0  0  0  0  0  0  0  0  0  0  0  0
   10.8879  -11.9991    0.0000 C   0  0  0  0  0  0  0  0  0  0  0  0
   10.8879  -11.1750    0.0000 C   0  0  0  0  0  0  0  0  0  0  0  0
   11.6001  -10.7650    0.0000 C   0  0  0  0  0  0  0  0  0  0  0  0
  2  1  2  0
  3  2  1  0
  4  3  2  0
  5  4  1  0
  6  5  2  0
  1  6  1  0
  6  7  1  0
  8  7  1  0
  9  8  1  0
 10  9  2  0
  1 10  1  0
M  CHG  1   6   1
M  END

> <chembl_id>
CHEMBL4649270

> <chembl_pref_name>
None

$$$$

     RDKit          2D

  9  9  0  0  0  0  0  0  0  0999 V2000
   -2.6702   -0.4618    0.0000 C   0  0  0  0  0  0  0  0  0  0  0  0
   -1.8038    0.0372    0.0000 C   0  0  0  0  0  0  0  0  0  0  0  0
   -0.9384   -0.4638    0.0000 C   0  0  0  0  0  0  0  0  0  0  0  0
   -0.0718    0.0352    0.0000 C   0  0  0  0  0  0  0  0  0  0  0  0
    0.8414   -0.3726    0.0000 C   0  0  0  0  0  0  0  0  0  0  0  0
    1.5112    0.3698    0.0000 C   0  0  0  0  0  0  0  0  0  0  0  0
    2.5056    0.2642    0.0000 N   0  0  0  0  0  0  0  0  0  0  0  0
    1.0122    1.2364    0.0000 N   0  0  0  0  0  0  0  0  0  0  0  0
    0.0340    1.0296    0.0000 N   0  0  0  0  0  0  0  0  0  0  0  0
  1  2  1  0
  2  3  1  0
  3  4  1  0
  4  5  1  0
  5  6  2  0
  6  7  1  0
  6  8  1  0
  8  9  1  0
  9  4  2  0
M  END

> <chembl_id>
CHEMBL4571540

> <chembl_pref_name>
None

$$$$

     RDKit          2D

  8  9  0  0  0  0  0  0  0  0999 V2000
   -0.1158    0.2514    0.0000 N   0  0  0  0  0  0  0  0  0  0  0  0
   -0.9005   -0.8285    0.0000 N   0  0  0  0  0  0  0  0  0  0  0  0
    0.6688    0.5063    0.0000 N   0  0  0  0  0  0  0  0  0  0  0  0
   -0.1158   -0.5736    0.0000 C   0  0  0  0  0  0  0  0  0  0  0  0
   -0.9005    0.5063    0.0000 C   0  0  0  0  0  0  0  0  0  0  0  0
    0.6688   -0.8285    0.0000 C   0  0  0  0  0  0  0  0  0  0  0  0
   -1.3854   -0.1611    0.0000 C   0  0  0  0  0  0  0  0  0  0  0  0
    1.1537   -0.1611    0.0000 C   0  0  0  0  0  0  0  0  0  0  0  0
  1  3  1  0
  1  4  1  0
  1  5  1  0
  2  4  1  0
  2  7  1  0
  3  8  2  0
  4  6  2  0
  5  7  1  0
  6  8  1  0
M  END

> <chembl_id>
CHEMBL1985849

> <chembl_pref_name>
None

$$$$

     RDKit          2D

 10 10  0  0  0  0  0  0  0  0999 V2000
   21.5468   -1.8448    0.0000 C   0  0  0  0  0  0  0  0  0  0  0  0
   21.5457   -2.6644    0.0000 C   0  0  0  0  0  0  0  0  0  0  0  0
   22.2537   -3.0733    0.0000 N   0  0  0  0  0  0  0  0  0  0  0  0
   22.9634   -2.6639    0.0000 C   0  0  0  0  0  0  0  0  0  0  0  0
   22.9606   -1.8412    0.0000 C   0  0  0  0  0  0  0  0  0  0  0  0
   22.2520   -1.4360    0.0000 C   0  0  0  0  0  0  0  0  0  0  0  0
   23.6718   -3.0714    0.0000 C   0  0  0  0  0  0  0  0  0  0  0  0
   24.3788   -2.6617    0.0000 C   0  0  0  0  0  0  0  0  0  0  0  0
   25.0872   -3.0692    0.0000 C   0  0  0  0  0  0  0  0  0  0  0  0
   25.7942   -2.6595    0.0000 O   0  0  0  0  0  0  0  0  0  0  0  0
  1  2  2  0
  2  3  1  0
  3  4  2  0
  4  5  1  0
  5  6  2  0
  6  1  1  0
  4  7  1  0
  7  8  1  0
  8  9  1  0
  9 10  1  0
M  END

> <chembl_id>
CHEMBL3229430

> <chembl_pref_name>
None

$$$$

     RDKit          2D

 10 10  0  0  0  0  0  0  0  0999 V2000
    2.4103  -25.9231    0.0000 N   0  0  0  0  0  0  0  0  0  0  0  0
    3.0733  -25.4452    0.0000 C   0  0  0  0  0  0  0  0  0  0  0  0
    2.8189  -24.6644    0.0000 C   0  0  0  0  0  0  0  0  0  0  0  0
    2.0017  -24.6644    0.0000 C   0  0  0  0  0  0  0  0  0  0  0  0
    1.7473  -25.4452    0.0000 C   0  0  0  0  0  0  0  0  0  0  0  0
    3.7764  -25.8530    0.0000 C   0  0  0  0  0  0  0  0  0  0  0  0
    3.7748  -26.6701    0.0000 O   0  0  0  0  0  0  0  0  0  0  0  0
    4.4849  -25.4457    0.0000 O   0  0  0  0  0  0  0  0  0  0  0  0
    5.1918  -25.8557    0.0000 C   0  0  0  0  0  0  0  0  0  0  0  0
    5.1903  -26.6729    0.0000 C   0  0  0  0  0  0  0  0  0  0  0  0
  4  5  2  0
  2  3  2  0
  1  2  1  0
  3  4  1  0
  5  1  1  0
  2  6  1  0
  6  7  2  0
  6  8  1  0
  8  9  1  0
  9 10  1  0
M  END

> <chembl_id>
CHEMBL4175237

> <chembl_pref_name>
None

$$$$

     RDKit          2D

 10 10  0  0  0  0  0  0  0  0999 V2000
    1.4287   -3.7499    0.0000 O   0  0  0  0  0  0  0  0  0  0  0  0
    0.0000   -3.7499    0.0000 O   0  0  0  0  0  0  0  0  0  0  0  0
    0.7125   -0.0487    0.0000 O   0  0  0  0  0  0  0  0  0  0  0  0
    0.7125   -3.3450    0.0000 N   0  0  0  0  0  0  0  0  0  0  0  0
    0.7125   -2.5200    0.0000 C   0  0  0  0  0  0  0  0  0  0  0  0
    1.4287   -2.1037    0.0000 C   0  0  0  0  0  0  0  0  0  0  0  0
    0.0000   -2.1037    0.0000 C   0  0  0  0  0  0  0  0  0  0  0  0
    0.7125   -0.8737    0.0000 C   0  0  0  0  0  0  0  0  0  0  0  0
    1.4287   -1.2787    0.0000 C   0  0  0  0  0  0  0  0  0  0  0  0
    0.0000   -1.2787    0.0000 C   0  0  0  0  0  0  0  0  0  0  0  0
  1  4  1  0
  2  4  2  0
  3  8  1  0
  4  5  1  0
  5  6  2  0
  5  7  1  0
  6  9  1  0
  7 10  2  0
  8  9  2  0
  8 10  1  0
M  CHG  2   1  -1   4   1
M  END

> <chembl_id>
CHEMBL14130

> <chembl_pref_name>
P-NITROPHENOL

$$$$

     RDKit          2D

  7  7  0  0  0  0  0  0  0  0999 V2000
    0.0000   -0.5625    0.0000 C   0  0  0  0  0  0  0  0  0  0  0  0
    0.6667   -0.0792    0.0000 C   0  0  0  0  0  0  0  0  0  0  0  0
    0.4125    0.7000    0.0000 S   0  0  0  0  0  0  0  0  0  0  0  0
   -0.4125    0.7000    0.0000 S   0  0  0  0  0  0  0  0  0  0  0  0
   -0.6625   -0.0792    0.0000 C   0  0  0  0  0  0  0  0  0  0  0  0
    1.4542   -0.3375    0.0000 S   0  0  0  0  0  0  0  0  0  0  0  0
   -1.4625   -0.3250    0.0000 C   0  0  0  0  0  0  0  0  0  0  0  0
  2  1  1  0
  3  2  1  0
  4  5  1  0
  5  1  2  0
  6  2  2  0
  7  5  1  0
  3  4  1  0
M  END

> <chembl_id>
CHEMBL425332

> <chembl_pref_name>
None

$$$$

     RDKit          2D

 10 10  0  0  0  0  0  0  0  0999 V2000
    2.5814   -0.2382    0.0000 C   0  0  0  0  0  0  0  0  0  0  0  0
    1.5870   -0.3440    0.0000 N   0  0  0  0  0  0  0  0  0  0  0  0
    0.9172    0.3984    0.0000 C   0  0  0  0  0  0  0  0  0  0  0  0
    0.0040   -0.0094    0.0000 C   0  0  0  0  0  0  0  0  0  0  0  0
   -0.8626    0.4896    0.0000 C   0  0  0  0  0  0  0  0  0  0  0  0
   -0.8638    1.4896    0.0000 N   0  0  0  0  0  0  0  0  0  0  0  0
   -1.7278   -0.0112    0.0000 C   0  0  0  0  0  0  0  0  0  0  0  0
   -2.5944    0.4878    0.0000 N   0  0  0  0  0  0  0  0  0  0  0  0
    0.1098   -1.0036    0.0000 C   0  0  0  0  0  0  0  0  0  0  0  0
    1.0880   -1.2106    0.0000 N   0  0  0  0  0  0  0  0  0  0  0  0
  1  2  1  0
  2  3  1  0
  3  4  2  0
  4  5  1  0
  5  6  1  0
  5  7  1  0
  7  8  1  0
  4  9  1  0
  9 10  2  0
 10  2  1  0
M  END

> <chembl_id>
CHEMBL4545767

> <chembl_pref_name>
None

$$$$

     RDKit          2D

  9  9  0  0  0  0  0  0  0  0999 V2000
   -2.6662   -0.4438    0.0000 C   0  0  0  0  0  0  0  0  0  0  0  0
   -1.6712   -0.3432    0.0000 C   0  0  0  0  0  0  0  0  0  0  0  0
   -1.0050   -1.0890    0.0000 C   0  0  0  0  0  0  0  0  0  0  0  0
   -0.0898   -0.6858    0.0000 C   0  0  0  0  0  0  0  0  0  0  0  0
    0.7742   -1.1892    0.0000 C   0  0  0  0  0  0  0  0  0  0  0  0
    1.6422   -0.6928    0.0000 O   0  0  0  0  0  0  0  0  0  0  0  0
   -0.1906    0.3090    0.0000 C   0  0  0  0  0  0  0  0  0  0  0  0
    0.5552    0.9752    0.0000 C   0  0  0  0  0  0  0  0  0  0  0  0
   -1.1678    0.5208    0.0000 O   0  0  0  0  0  0  0  0  0  0  0  0
  1  2  1  0
  2  3  2  0
  3  4  1  0
  4  5  1  0
  5  6  1  0
  4  7  2  0
  7  8  1  0
  7  9  1  0
  9  2  1  0
M  END

> <chembl_id>
CHEMBL4540364

> <chembl_pref_name>
None

$$$$

     RDKit          2D

  9  9  0  0  0  0  0  0  0  0999 V2000
   15.0386    1.6105    0.0000 C   0  0  0  0  0  0  0  0  0  0  0  0
   15.7551    1.1983    0.0000 C   0  0  0  0  0  0  0  0  0  0  0  0
   15.7517    0.3746    0.0000 N   0  0  0  0  0  0  0  0  0  0  0  0
   16.4672   -0.0375    0.0000 C   0  0  0  0  0  0  0  0  0  0  0  0
   17.1833    0.3770    0.0000 N   0  0  0  0  0  0  0  0  0  0  0  0
   17.1793    1.2078    0.0000 C   0  0  0  0  0  0  0  0  0  0  0  0
   16.4632    1.6160    0.0000 C   0  0  0  0  0  0  0  0  0  0  0  0
   17.8930    1.6246    0.0000 O   0  0  0  0  0  0  0  0  0  0  0  0
   16.4681   -0.8639    0.0000 N   0  0  0  0  0  0  0  0  0  0  0  0
  4  5  1  0
  2  3  1  0
  5  6  1  0
  1  2  1  0
  6  7  1  0
  7  2  2  0
  3  4  2  0
  6  8  2  0
  4  9  1  0
M  END

> <chembl_id>
CHEMBL391757

> <chembl_pref_name>
None

$$$$

     RDKit          2D

  9  9  0  0  0  0  0  0  0  0999 V2000
   -2.9196    0.2506    0.0000 C   0  0  0  0  0  0  0  0  0  0  0  0
   -2.0518   -0.2462    0.0000 N   0  0  0  0  0  0  0  0  0  0  0  0
   -1.1876    0.2568    0.0000 C   0  0  0  0  0  0  0  0  0  0  0  0
   -1.1912    1.2568    0.0000 C   0  0  0  0  0  0  0  0  0  0  0  0
   -0.3270    1.7598    0.0000 C   0  0  0  0  0  0  0  0  0  0  0  0
    0.5408    1.2630    0.0000 N   0  0  0  0  0  0  0  0  0  0  0  0
    0.5444    0.2630    0.0000 C   0  0  0  0  0  0  0  0  0  0  0  0
    1.4122   -0.2338    0.0000 C   0  0  0  0  0  0  0  0  0  0  0  0
   -0.3198   -0.2400    0.0000 C   0  0  0  0  0  0  0  0  0  0  0  0
  1  2  1  0
  2  3  1  0
  3  4  2  0
  4  5  1  0
  5  6  2  0
  6  7  1  0
  7  8  1  0
  7  9  2  0
  9  3  1  0
M  END

> <chembl_id>
CHEMBL4533556

> <chembl_pref_name>
None

$$$$

     RDKit          2D

  6  6  0  0  0  0  0  0  0  0999 V2000
    0.7500   -1.0323    0.0000 N   0  0  0  0  0  0  0  0  0  0  0  0
    1.2135    0.3943    0.0000 N   0  0  0  0  0  0  0  0  0  0  0  0
    0.0000    1.2760    0.0000 C   0  0  0  0  0  0  0  0  0  0  0  0
   -1.2135    0.3943    0.0000 C   0  0  0  0  0  0  0  0  0  0  0  0
   -0.7500   -1.0323    0.0000 C   0  0  0  0  0  0  0  0  0  0  0  0
   -2.3548    0.7651    0.0000 C   0  0  0  0  0  0  0  0  0  0  0  0
  1  2  1  0
  2  3  2  0
  3  4  1  0
  4  5  2  0
  1  5  1  0
  4  6  1  0
M  END

> <chembl_id>
CHEMBL1308

> <chembl_pref_name>
FOMEPIZOLE

$$$$

     RDKit          2D

  9  9  0  0  0  0  0  0  0  0999 V2000
    2.2736  -13.3583    0.0000 N   0  0  0  0  0  0  0  0  0  0  0  0
    2.2724  -14.1857    0.0000 C   0  0  0  0  0  0  0  0  0  0  0  0
    2.9872  -14.5985    0.0000 N   0  0  0  0  0  0  0  0  0  0  0  0
    3.7037  -14.1852    0.0000 C   0  0  0  0  0  0  0  0  0  0  0  0
    3.7008  -13.3547    0.0000 C   0  0  0  0  0  0  0  0  0  0  0  0
    2.9854  -12.9455    0.0000 C   0  0  0  0  0  0  0  0  0  0  0  0
    4.4137  -12.9395    0.0000 N   0  0  0  0  0  0  0  0  0  0  0  0
    2.9830  -12.1205    0.0000 O   0  0  0  0  0  0  0  0  0  0  0  0
    4.4188  -14.5966    0.0000 N   0  0  0  0  0  0  0  0  0  0  0  0
  4  5  2  0
  2  3  2  0
  5  6  1  0
  6  1  1  0
  1  2  1  0
  5  7  1  0
  3  4  1  0
  6  8  2  0
  4  9  1  0
M  END

> <chembl_id>
CHEMBL2151972

> <chembl_pref_name>
None

$$$$

     RDKit          2D

 11 12  0  0  0  0  0  0  0  0999 V2000
   -2.5594   -6.7608    0.0000 C   0  0  0  0  0  0  0  0  0  0  0  0
   -1.8450   -7.1735    0.0000 C   0  0  0  0  0  0  0  0  0  0  0  0
   -1.1290   -6.7604    0.0000 C   0  0  0  0  0  0  0  0  0  0  0  0
   -1.1318   -5.9303    0.0000 C   0  0  0  0  0  0  0  0  0  0  0  0
   -2.5583   -5.9340    0.0000 C   0  0  0  0  0  0  0  0  0  0  0  0
   -1.8470   -5.5167    0.0000 C   0  0  0  0  0  0  0  0  0  0  0  0
   -2.0241   -4.7112    0.0000 N   0  0  0  0  0  0  0  0  0  0  0  0
   -2.8448   -4.6308    0.0000 C   0  0  0  0  0  0  0  0  0  0  0  0
   -3.1748   -5.3864    0.0000 C   0  0  0  0  0  0  0  0  0  0  0  0
   -3.2621   -3.9196    0.0000 O   0  0  0  0  0  0  0  0  0  0  0  0
   -1.4766   -4.0947    0.0000 O   0  0  0  0  0  0  0  0  0  0  0  0
  1  2  1  0
  5  1  2  0
  2  3  2  0
  3  4  1  0
  6  7  1  0
  7  8  1  0
  8  9  1  0
  9  5  1  0
  4  6  2  0
  8 10  2  0
  5  6  1  0
  7 11  1  0
M  END

> <chembl_id>
CHEMBL232021

> <chembl_pref_name>
None

$$$$
 
     RDKit          2D

  9  9  0  0  0  0  0  0  0  0999 V2000
    3.8522  -12.0548    0.0000 N   0  0  0  0  0  0  0  0  0  0  0  0
    3.8522  -12.8805    0.0000 C   0  0  0  0  0  0  0  0  0  0  0  0
    4.5655  -13.2925    0.0000 N   0  0  0  0  0  0  0  0  0  0  0  0
    5.2805  -12.8801    0.0000 C   0  0  0  0  0  0  0  0  0  0  0  0
    5.2805  -12.0512    0.0000 C   0  0  0  0  0  0  0  0  0  0  0  0
    4.5637  -11.6428    0.0000 C   0  0  0  0  0  0  0  0  0  0  0  0
    4.5637  -10.8195    0.0000 O   0  0  0  0  0  0  0  0  0  0  0  0
    5.9942  -13.2905    0.0000 F   0  0  0  0  0  0  0  0  0  0  0  0
    3.1387  -13.2916    0.0000 O   0  0  0  0  0  0  0  0  0  0  0  0
  1  2  1  0
  2  3  1  0
  3  4  1  0
  4  5  2  0
  5  6  1  0
  6  1  1  0
  6  7  2  0
  4  8  1  0
  2  9  2  0
M  END

> <chembl_id>
CHEMBL4854670

> <chembl_pref_name>
None

$$$$

     RDKit          2D

 10 10  0  0  0  0  0  0  0  0999 V2000
    5.7375   -2.7125    0.0000 C   0  0  0  0  0  0  0  0  0  0  0  0
    5.0250   -2.3000    0.0000 C   0  0  0  0  0  0  0  0  0  0  0  0
    6.4500   -2.2917    0.0000 C   0  0  0  0  0  0  0  0  0  0  0  0
    5.7375   -3.5375    0.0000 C   0  0  0  0  0  0  0  0  0  0  0  0
    4.3042   -2.7125    0.0000 C   0  0  0  0  0  0  0  0  0  0  0  0
    5.0250   -1.4750    0.0000 C   0  0  0  0  0  0  0  0  0  0  0  0
    3.5917   -2.3000    0.0000 C   0  0  0  0  0  0  0  0  0  0  0  0
    7.1667   -2.7042    0.0000 C   0  0  0  0  0  0  0  0  0  0  0  0
    6.4500   -3.9500    0.0000 C   0  0  0  0  0  0  0  0  0  0  0  0
    7.1667   -3.5375    0.0000 C   0  0  0  0  0  0  0  0  0  0  0  0
  2  1  1  0
  3  1  1  0
  4  1  2  0
  5  2  1  0
  6  2  1  0
  7  5  1  0
  8  3  2  0
  9  4  1  0
 10  9  2  0
  8 10  1  0
M  END

> <chembl_id>
CHEMBL27516

> <chembl_pref_name>
None

$$$$

     RDKit          2D

  7  7  0  0  0  0  0  0  0  0999 V2000
    3.7418   -7.3365    0.0000 C   0  0  0  0  0  0  0  0  0  0  0  0
    3.7406   -8.1633    0.0000 C   0  0  0  0  0  0  0  0  0  0  0  0
    4.4550   -8.5760    0.0000 C   0  0  0  0  0  0  0  0  0  0  0  0
    5.1709   -8.1628    0.0000 C   0  0  0  0  0  0  0  0  0  0  0  0
    5.1680   -7.3329    0.0000 C   0  0  0  0  0  0  0  0  0  0  0  0
    4.4532   -6.9241    0.0000 C   0  0  0  0  0  0  0  0  0  0  0  0
    4.4507   -6.0997    0.0000 N   0  0  0  0  0  0  0  0  0  0  0  0
  3  4  2  0
  4  5  1  0
  2  3  1  0
  5  6  2  0
  6  1  1  0
  1  2  2  0
  6  7  1  0
M  END

> <chembl_id>
CHEMBL538

> <chembl_pref_name>
ANILINE

$$$$
 
     RDKit          2D

 10 10  0  0  0  0  0  0  0  0999 V2000
   27.6796  -13.8646    0.0000 C   0  0  0  0  0  0  0  0  0  0  0  0
   28.3280  -14.3619    0.0000 N   0  0  0  0  0  0  0  0  0  0  0  0
   29.0013  -13.8990    0.0000 C   0  0  0  0  0  0  0  0  0  0  0  0
   28.7691  -13.1154    0.0000 C   0  0  0  0  0  0  0  0  0  0  0  0
   27.9523  -13.0943    0.0000 C   0  0  0  0  0  0  0  0  0  0  0  0
   29.2665  -12.4670    0.0000 C   0  0  0  0  0  0  0  0  0  0  0  0
   30.0767  -12.5735    0.0000 O   0  0  0  0  0  0  0  0  0  0  0  0
   28.9536  -11.7121    0.0000 O   0  0  0  0  0  0  0  0  0  0  0  0
   29.7717  -14.1717    0.0000 C   0  0  0  0  0  0  0  0  0  0  0  0
   26.8961  -14.0968    0.0000 C   0  0  0  0  0  0  0  0  0  0  0  0
  1  2  1  0
  2  3  1  0
  3  4  2  0
  4  5  1  0
  5  1  2  0
  4  6  1  0
  6  7  1  0
  6  8  2  0
  3  9  1  0
  1 10  1  0
M  END

> <chembl_id>
CHEMBL4645573

> <chembl_pref_name>
None

$$$$

     RDKit          2D

 11 11  0  0  0  0  0  0  0  0999 V2000
    4.1375    0.8875    0.0000 C   0  0  0  0  0  0  0  0  0  0  0  0
    2.7042    0.8833    0.0000 C   0  0  0  0  0  0  0  0  0  0  0  0
    4.8500    1.3083    0.0000 C   0  0  0  0  0  0  0  0  0  0  0  0
    5.5625    1.7208    0.0000 N   0  0  0  0  0  0  0  0  0  0  0  0
    3.4167    1.2958    0.0000 C   0  0  0  0  0  0  0  0  0  0  0  0
    2.4417    0.0958    0.0000 O   0  0  0  0  0  0  0  0  0  0  0  0
    2.0375    1.3708    0.0000 C   0  0  0  0  0  0  0  0  0  0  0  0
    1.6250    0.0958    0.0000 C   0  0  0  0  0  0  0  0  0  0  0  0
    1.3750    0.8833    0.0000 C   0  0  0  0  0  0  0  0  0  0  0  0
    4.1417    0.0625    0.0000 C   0  0  0  0  0  0  0  0  0  0  0  0
    3.4167    2.1208    0.0000 O   0  0  0  0  0  0  0  0  0  0  0  0
  2  5  1  0
  3  1  1  0
  4  3  3  0
  5  1  1  0
  6  2  1  0
  7  2  2  0
  8  6  1  0
  9  7  1  0
 10  1  2  0
 11  5  1  0
  8  9  2  0
M  END

> <chembl_id>
CHEMBL163194

> <chembl_pref_name>
None

$$$$

     RDKit          2D

  9  9  0  0  0  0  0  0  0  0999 V2000
    0.9416   -1.4224    0.0000 C   0  0  0  0  0  0  0  0  0  0  0  0
    0.9452   -0.4224    0.0000 C   0  0  0  0  0  0  0  0  0  0  0  0
    1.8130    0.0744    0.0000 O   0  0  0  0  0  0  0  0  0  0  0  0
    0.0810    0.0806    0.0000 C   0  0  0  0  0  0  0  0  0  0  0  0
    0.0846    1.0806    0.0000 C   0  0  0  0  0  0  0  0  0  0  0  0
   -0.7796    1.5838    0.0000 C   0  0  0  0  0  0  0  0  0  0  0  0
   -1.6474    1.0868    0.0000 N   0  0  0  0  0  0  0  0  0  0  0  0
   -1.6510    0.0868    0.0000 C   0  0  0  0  0  0  0  0  0  0  0  0
   -0.7868   -0.4162    0.0000 N   0  0  0  0  0  0  0  0  0  0  0  0
  1  2  1  0
  2  3  2  0
  2  4  1  0
  4  5  2  0
  5  6  1  0
  6  7  2  0
  7  8  1  0
  8  9  2  0
  9  4  1  0
M  END

> <chembl_id>
CHEMBL4547324

> <chembl_pref_name>
None

$$$$

     RDKit          2D

  8  8  0  0  0  0  0  0  0  0999 V2000
   -0.5359    0.1031    0.0000 C   0  0  0  0  0  0  0  0  0  0  0  0
    0.1786    0.5156    0.0000 C   0  0  0  0  0  0  0  0  0  0  0  0
    0.8931    0.1031    0.0000 C   0  0  0  0  0  0  0  0  0  0  0  0
    0.8931   -0.7219    0.0000 C   0  0  0  0  0  0  0  0  0  0  0  0
    0.1786   -1.1344    0.0000 C   0  0  0  0  0  0  0  0  0  0  0  0
   -0.5359   -0.7219    0.0000 C   0  0  0  0  0  0  0  0  0  0  0  0
   -1.2503    0.5156    0.0000 C   0  0  0  0  0  0  0  0  0  0  0  0
    0.1786    1.3406    0.0000 C   0  0  0  0  0  0  0  0  0  0  0  0
  1  2  2  0
  1  6  1  0
  1  7  1  0
  2  3  1  0
  2  8  1  0
  3  4  2  0
  4  5  1  0
  5  6  2  0
M  END

> <chembl_id>
CHEMBL45005

> <chembl_pref_name>
O-XYLENE

$$$$

     RDKit          2D

  9  9  0  0  0  0  0  0  0  0999 V2000
    1.4080    0.9324    0.0000 C   0  0  0  0  0  0  0  0  0  0  0  0
    0.5984    0.3454    0.0000 N   0  0  0  0  0  0  0  0  0  0  0  0
    0.5976   -0.6546    0.0000 N   0  0  0  0  0  0  0  0  0  0  0  0
   -0.3538   -0.9628    0.0000 C   0  0  0  0  0  0  0  0  0  0  0  0
   -0.9408   -0.1532    0.0000 C   0  0  0  0  0  0  0  0  0  0  0  0
   -1.9408   -0.1524    0.0000 C   0  0  0  0  0  0  0  0  0  0  0  0
   -2.9408   -0.1516    0.0000 N   0  0  0  0  0  0  0  0  0  0  0  0
   -0.3522    0.6552    0.0000 C   0  0  0  0  0  0  0  0  0  0  0  0
   -0.6604    1.6066    0.0000 Cl  0  0  0  0  0  0  0  0  0  0  0  0
  1  2  1  0
  2  3  1  0
  3  4  2  0
  4  5  1  0
  5  6  1  0
  6  7  3  0
  5  8  2  0
  8  9  1  0
  8  2  1  0
M  END

> <chembl_id>
CHEMBL4567331

> <chembl_pref_name>
None

$$$$

     RDKit          2D

 11 12  0  0  0  0  0  0  0  0999 V2000
    3.2667   -0.5167    0.0000 N   0  0  0  0  0  0  0  0  0  0  0  0
    2.5542   -0.9417    0.0000 C   0  0  0  0  0  0  0  0  0  0  0  0
    3.9917   -0.9417    0.0000 N   0  0  0  0  0  0  0  0  0  0  0  0
    3.2667   -2.1875    0.0000 N   0  0  0  0  0  0  0  0  0  0  0  0
    2.5500   -1.7750    0.0000 C   0  0  0  0  0  0  0  0  0  0  0  0
    3.9917   -1.7750    0.0000 C   0  0  0  0  0  0  0  0  0  0  0  0
    1.8375   -0.5292    0.0000 N   0  0  0  0  0  0  0  0  0  0  0  0
    1.8375   -2.1792    0.0000 C   0  0  0  0  0  0  0  0  0  0  0  0
    1.1250   -0.9417    0.0000 C   0  0  0  0  0  0  0  0  0  0  0  0
    4.7042   -2.1875    0.0000 C   0  0  0  0  0  0  0  0  0  0  0  0
    1.1250   -1.7667    0.0000 C   0  0  0  0  0  0  0  0  0  0  0  0
  2  1  1  0
  3  1  2  0
  4  6  1  0
  5  2  1  0
  6  3  1  0
  7  2  2  0
  8  5  2  0
  9  7  1  0
 10  6  1  0
 11  9  2  0
  5  4  1  0
 11  8  1  0
M  END

> <chembl_id>
CHEMBL83445

> <chembl_pref_name>
None

$$$$

     RDKit          2D

  9  9  0  0  0  0  0  0  0  0999 V2000
    7.2442  -10.0368    0.0000 N   0  0  0  0  0  0  0  0  0  0  0  0
    7.2185   -7.5664    0.0000 C   0  0  0  0  0  0  0  0  0  0  0  0
    7.9450   -7.9740    0.0000 C   0  0  0  0  0  0  0  0  0  0  0  0
    7.2084   -6.7440    0.0000 O   0  0  0  0  0  0  0  0  0  0  0  0
    7.2367   -9.2143    0.0000 C   0  0  0  0  0  0  0  0  0  0  0  0
    6.5231   -8.8157    0.0000 C   0  0  0  0  0  0  0  0  0  0  0  0
    7.9521   -8.8020    0.0000 C   0  0  0  0  0  0  0  0  0  0  0  0
    6.5119   -7.9908    0.0000 C   0  0  0  0  0  0  0  0  0  0  0  0
    5.7925   -7.5901    0.0000 C   0  0  0  0  0  0  0  0  0  0  0  0
  3  7  1  0
  2  3  2  0
  5  6  1  0
  5  1  1  0
  8  2  1  0
  6  8  2  0
  7  5  2  0
  2  4  1  0
  8  9  1  0
M  END

> <chembl_id>
CHEMBL3092391

> <chembl_pref_name>
None

$$$$

     RDKit          2D

  9  9  0  0  0  0  0  0  0  0999 V2000
    7.4542   -7.4625    0.0000 N   0  0  0  0  0  0  0  0  0  0  0  0
    6.6500   -7.2917    0.0000 N   0  0  0  0  0  0  0  0  0  0  0  0
    7.3167   -6.1375    0.0000 N   0  0  0  0  0  0  0  0  0  0  0  0
    6.5542   -6.4750    0.0000 C   0  0  0  0  0  0  0  0  0  0  0  0
    7.8667   -6.7500    0.0000 N   0  0  0  0  0  0  0  0  0  0  0  0
    5.8417   -6.0625    0.0000 C   0  0  0  0  0  0  0  0  0  0  0  0
    4.4167   -6.0625    0.0000 S   0  0  0  0  0  0  0  0  0  0  0  0
    5.1292   -6.4750    0.0000 C   0  0  0  0  0  0  0  0  0  0  0  0
    3.7042   -6.4750    0.0000 C   0  0  0  0  0  0  0  0  0  0  0  0
  2  1  2  0
  3  5  1  0
  4  2  1  0
  5  1  1  0
  6  4  1  0
  7  8  1  0
  8  6  1  0
  9  7  1  0
  3  4  2  0
M  END

> <chembl_id>
CHEMBL331537

> <chembl_pref_name>
None

$$$$

     RDKit          2D

  9  9  0  0  0  0  0  0  0  0999 V2000
    1.7204   -1.5830    0.0000 N   0  0  0  0  0  0  0  0  0  0  0  0
    1.6644   -0.5848    0.0000 C   0  0  0  0  0  0  0  0  0  0  0  0
    2.5010   -0.0372    0.0000 O   0  0  0  0  0  0  0  0  0  0  0  0
    0.7716   -0.1340    0.0000 C   0  0  0  0  0  0  0  0  0  0  0  0
   -0.1176   -0.5914    0.0000 N   0  0  0  0  0  0  0  0  0  0  0  0
   -0.8274    0.1130    0.0000 C   0  0  0  0  0  0  0  0  0  0  0  0
   -0.3766    1.0058    0.0000 N   0  0  0  0  0  0  0  0  0  0  0  0
    0.6116    0.8530    0.0000 C   0  0  0  0  0  0  0  0  0  0  0  0
    1.3160    1.5628    0.0000 O   0  0  0  0  0  0  0  0  0  0  0  0
  1  2  1  0
  2  3  2  0
  2  4  1  0
  4  5  1  0
  5  6  1  0
  6  7  2  0
  7  8  1  0
  8  9  1  0
  8  4  2  0
M  END

> <chembl_id>
CHEMBL4303691

> <chembl_pref_name>
None

$$$$

     RDKit          2D

 11 11  0  0  0  0  0  0  0  0999 V2000
   10.5684  -14.5773    0.0000 C   0  0  0  0  0  0  0  0  0  0  0  0
   10.5673  -15.3969    0.0000 C   0  0  0  0  0  0  0  0  0  0  0  0
   11.2753  -15.8058    0.0000 C   0  0  0  0  0  0  0  0  0  0  0  0
   11.9850  -15.3964    0.0000 C   0  0  0  0  0  0  0  0  0  0  0  0
   11.9821  -14.5737    0.0000 C   0  0  0  0  0  0  0  0  0  0  0  0
   11.2735  -14.1685    0.0000 C   0  0  0  0  0  0  0  0  0  0  0  0
   12.6883  -14.1625    0.0000 C   0  0  0  0  0  0  0  0  0  0  0  0
   13.3976  -14.5684    0.0000 C   0  0  0  0  0  0  0  0  0  0  0  0
   12.6852  -13.3453    0.0000 N   0  0  0  0  0  0  0  0  0  0  0  0
   14.1037  -14.1571    0.0000 C   0  0  0  0  0  0  0  0  0  0  0  0
   14.8085  -13.7457    0.0000 N   0  0  0  0  0  0  0  0  0  0  0  0
  1  2  2  0
  2  3  1  0
  3  4  2  0
  4  5  1  0
  5  6  2  0
  6  1  1  0
  5  7  1  0
  7  8  2  0
  7  9  1  0
  8 10  1  0
 10 11  3  0
M  END

> <chembl_id>
CHEMBL3251045

> <chembl_pref_name>
None

$$$$

     RDKit          2D

 10 10  0  0  0  0  0  0  0  0999 V2000
   14.3817  -16.5319    0.0000 C   0  0  0  0  0  0  0  0  0  0  0  0
   14.3806  -17.3588    0.0000 C   0  0  0  0  0  0  0  0  0  0  0  0
   15.0950  -17.7715    0.0000 C   0  0  0  0  0  0  0  0  0  0  0  0
   15.8110  -17.3583    0.0000 C   0  0  0  0  0  0  0  0  0  0  0  0
   15.8082  -16.5283    0.0000 C   0  0  0  0  0  0  0  0  0  0  0  0
   15.0932  -16.1194    0.0000 C   0  0  0  0  0  0  0  0  0  0  0  0
   15.0907  -15.2949    0.0000 C   0  0  0  0  0  0  0  0  0  0  0  0
   15.0828  -14.4665    0.0000 C   0  0  0  0  0  0  0  0  0  0  0  0
   16.5207  -16.1133    0.0000 C   0  0  0  0  0  0  0  0  0  0  0  0
   17.2363  -16.5229    0.0000 O   0  0  0  0  0  0  0  0  0  0  0  0
  2  3  1  0
  5  6  2  0
  6  1  1  0
  1  2  2  0
  6  7  1  0
  3  4  2  0
  7  8  3  0
  5  9  1  0
  4  5  1  0
  9 10  2  0
M  END

> <chembl_id>
CHEMBL232450

> <chembl_pref_name>
None

$$$$

     RDKit          2D

 11 12  0  0  0  0  0  0  0  0999 V2000
   -3.2706   -0.4376    0.0000 O   0  0  0  0  0  0  0  0  0  0  0  0
   -2.7700    0.4280    0.0000 C   0  0  0  0  0  0  0  0  0  0  0  0
   -1.7700    0.4272    0.0000 C   0  0  0  0  0  0  0  0  0  0  0  0
   -1.1828   -0.3824    0.0000 C   0  0  0  0  0  0  0  0  0  0  0  0
   -0.2316   -0.0740    0.0000 C   0  0  0  0  0  0  0  0  0  0  0  0
    0.6340   -0.5748    0.0000 C   0  0  0  0  0  0  0  0  0  0  0  0
    1.5004   -0.0754    0.0000 C   0  0  0  0  0  0  0  0  0  0  0  0
    1.5012    0.9246    0.0000 C   0  0  0  0  0  0  0  0  0  0  0  0
    0.6356    1.4252    0.0000 C   0  0  0  0  0  0  0  0  0  0  0  0
   -0.2308    0.9260    0.0000 C   0  0  0  0  0  0  0  0  0  0  0  0
   -1.1816    1.2356    0.0000 N   0  0  0  0  0  0  0  0  0  0  0  0
  1  2  1  0
  2  3  1  0
  3  4  1  0
  4  5  1  0
  5  6  2  0
  6  7  1  0
  7  8  2  0
  8  9  1  0
  9 10  2  0
 10 11  1  0
 11  3  1  0
 10  5  1  0
M  END

> <chembl_id>
CHEMBL4568655

> <chembl_pref_name>
None

$$$$

     RDKit          2D

 10 10  0  0  0  0  0  0  0  0999 V2000
    4.9292   -6.0292    0.0000 N   0  0  0  0  0  0  0  0  0  0  0  0
    4.9292   -4.3792    0.0000 N   0  0  0  0  0  0  0  0  0  0  0  0
    5.6417   -5.6167    0.0000 C   0  0  0  0  0  0  0  0  0  0  0  0
    6.3542   -6.0292    0.0000 C   0  0  0  0  0  0  0  0  0  0  0  0
    5.6417   -4.7917    0.0000 C   0  0  0  0  0  0  0  0  0  0  0  0
    4.2167   -5.6167    0.0000 C   0  0  0  0  0  0  0  0  0  0  0  0
    4.2167   -4.7917    0.0000 C   0  0  0  0  0  0  0  0  0  0  0  0
    7.0667   -5.6167    0.0000 C   0  0  0  0  0  0  0  0  0  0  0  0
    7.7875   -6.0292    0.0000 C   0  0  0  0  0  0  0  0  0  0  0  0
    7.0667   -4.7917    0.0000 C   0  0  0  0  0  0  0  0  0  0  0  0
  2  7  1  0
  3  1  2  0
  4  3  1  0
  5  3  1  0
  6  1  1  0
  7  6  2  0
  8  4  1  0
  9  8  1  0
 10  8  1  0
  5  2  2  0
M  END

> <chembl_id>
CHEMBL317788

> <chembl_pref_name>
None

$$$$

     RDKit          2D

  9  9  0  0  0  0  0  0  0  0999 V2000
    4.0007   -3.1900    0.0000 C   0  0  0  0  0  0  0  0  0  0  0  0
    3.9996   -4.0171    0.0000 C   0  0  0  0  0  0  0  0  0  0  0  0
    4.7140   -4.4297    0.0000 N   0  0  0  0  0  0  0  0  0  0  0  0
    5.4301   -4.0165    0.0000 C   0  0  0  0  0  0  0  0  0  0  0  0
    5.4273   -3.1864    0.0000 C   0  0  0  0  0  0  0  0  0  0  0  0
    4.7123   -2.7775    0.0000 C   0  0  0  0  0  0  0  0  0  0  0  0
    6.1474   -4.4272    0.0000 N   0  0  0  0  0  0  0  0  0  0  0  0
    6.8608   -4.0138    0.0000 O   0  0  0  0  0  0  0  0  0  0  0  0
    6.1486   -5.2518    0.0000 O   0  0  0  0  0  0  0  0  0  0  0  0
  1  2  2  0
  2  3  1  0
  3  4  2  0
  4  5  1  0
  5  6  2  0
  6  1  1  0
  7  8  2  0
  7  9  1  0
  4  7  1  0
M  CHG  2   7   1   9  -1
M  END

> <chembl_id>
CHEMBL3274304

> <chembl_pref_name>
None

$$$$

     RDKit          2D

  9  9  0  0  0  0  0  0  0  0999 V2000
    0.6194    0.8345    0.0000 O   0  0  0  0  0  0  0  0  0  0  0  0
   -0.8095    0.0095    0.0000 O   0  0  0  0  0  0  0  0  0  0  0  0
   -0.0950   -1.2280    0.0000 N   0  0  0  0  0  0  0  0  0  0  0  0
    0.6194    0.0095    0.0000 C   0  0  0  0  0  0  0  0  0  0  0  0
   -0.0950   -0.4030    0.0000 C   0  0  0  0  0  0  0  0  0  0  0  0
    1.3339   -0.4030    0.0000 C   0  0  0  0  0  0  0  0  0  0  0  0
    1.3339   -1.2280    0.0000 C   0  0  0  0  0  0  0  0  0  0  0  0
    0.6194   -1.6405    0.0000 C   0  0  0  0  0  0  0  0  0  0  0  0
   -0.0950    1.2470    0.0000 C   0  0  0  0  0  0  0  0  0  0  0  0
  1  4  1  0
  1  9  1  0
  2  5  1  0
  3  5  2  0
  3  8  1  0
  4  5  1  0
  4  6  2  0
  6  7  1  0
  7  8  2  0
M  END

> <chembl_id>
CHEMBL1876828

> <chembl_pref_name>
None

$$$$

     RDKit          2D

  8  8  0  0  0  0  0  0  0  0999 V2000
   12.5756  -10.3593    0.0000 S   0  0  0  0  0  0  0  0  0  0  0  0
   13.2460   -9.8785    0.0000 C   0  0  0  0  0  0  0  0  0  0  0  0
   12.9977   -9.0916    0.0000 N   0  0  0  0  0  0  0  0  0  0  0  0
   12.1701   -9.0861    0.0000 N   0  0  0  0  0  0  0  0  0  0  0  0
   11.9134   -9.8692    0.0000 C   0  0  0  0  0  0  0  0  0  0  0  0
   14.0287  -10.1392    0.0000 N   0  0  0  0  0  0  0  0  0  0  0  0
   11.1273  -10.1197    0.0000 C   0  0  0  0  0  0  0  0  0  0  0  0
   10.5174   -9.5642    0.0000 C   0  0  0  0  0  0  0  0  0  0  0  0
  3  4  1  0
  4  5  2  0
  5  1  1  0
  1  2  1  0
  2  6  1  0
  5  7  1  0
  2  3  2  0
  7  8  1  0
M  END

> <chembl_id>
CHEMBL568688

> <chembl_pref_name>
None

$$$$

     RDKit          2D

  9  9  0  0  0  0  0  0  0  0999 V2000
    1.2990   -0.7500    0.0000 C   0  0  0  0  0  0  0  0  0  0  0  0
    1.2990    0.7500    0.0000 C   0  0  0  0  0  0  0  0  0  0  0  0
    0.0000    1.5000    0.0000 N   0  0  0  0  0  0  0  0  0  0  0  0
   -1.2990    0.7500    0.0000 C   0  0  0  0  0  0  0  0  0  0  0  0
   -1.2990   -0.7500    0.0000 C   0  0  0  0  0  0  0  0  0  0  0  0
    0.0000   -1.5000    0.0000 C   0  0  0  0  0  0  0  0  0  0  0  0
    0.0000   -2.7000    0.0000 O   0  0  0  0  0  0  0  0  0  0  0  0
   -2.6003   -1.4978    0.0000 O   0  0  0  0  0  0  0  0  0  0  0  0
   -3.6387   -0.8963    0.0000 C   0  0  0  0  0  0  0  0  0  0  0  0
  1  2  2  0
  1  6  1  0
  2  3  1  0
  3  4  1  0
  4  5  2  0
  5  6  1  0
  6  7  2  0
  5  8  1  0
  8  9  1  0
M  END

> <chembl_id>
CHEMBL3786379

> <chembl_pref_name>
None

$$$$

     RDKit          2D

 10 10  0  0  0  0  0  0  0  0999 V2000
    0.8578   -1.6720    0.0000 C   0  0  0  0  0  0  0  0  0  0  0  0
    0.8566   -0.6720    0.0000 C   0  0  0  0  0  0  0  0  0  0  0  0
    1.7220   -0.1710    0.0000 C   0  0  0  0  0  0  0  0  0  0  0  0
    2.5886   -0.6700    0.0000 N   0  0  0  0  0  0  0  0  0  0  0  0
    1.7206    0.8290    0.0000 O   0  0  0  0  0  0  0  0  0  0  0  0
   -0.0100   -0.1730    0.0000 N   0  0  0  0  0  0  0  0  0  0  0  0
   -0.1156    0.8212    0.0000 C   0  0  0  0  0  0  0  0  0  0  0  0
   -1.0940    1.0282    0.0000 C   0  0  0  0  0  0  0  0  0  0  0  0
   -1.5930    0.1616    0.0000 C   0  0  0  0  0  0  0  0  0  0  0  0
   -0.9230   -0.5808    0.0000 N   0  0  0  0  0  0  0  0  0  0  0  0
  1  2  1  0
  2  3  1  0
  3  4  1  0
  3  5  2  0
  2  6  1  0
  6  7  1  0
  7  8  2  0
  8  9  1  0
  9 10  2  0
 10  6  1  0
M  END

> <chembl_id>
CHEMBL4517759

> <chembl_pref_name>
None

$$$$
 
     RDKit          2D

  7  7  0  0  0  0  0  0  0  0999 V2000
   28.7709   -4.0530    0.0000 C   0  0  0  0  0  0  0  0  0  0  0  0
   29.5881   -4.0530    0.0000 N   0  0  0  0  0  0  0  0  0  0  0  0
   29.8424   -3.2763    0.0000 C   0  0  0  0  0  0  0  0  0  0  0  0
   29.1795   -2.7941    0.0000 O   0  0  0  0  0  0  0  0  0  0  0  0
   28.5207   -3.2763    0.0000 C   0  0  0  0  0  0  0  0  0  0  0  0
   30.6201   -3.0253    0.0000 C   0  0  0  0  0  0  0  0  0  0  0  0
   31.3976   -2.7739    0.0000 N   0  0  0  0  0  0  0  0  0  0  0  0
  1  2  1  0
  2  3  2  0
  3  4  1  0
  4  5  1  0
  5  1  2  0
  6  7  3  0
  3  6  1  0
M  END

> <chembl_id>
CHEMBL4532061

> <chembl_pref_name>
None

$$$$

     RDKit          2D

 10 10  0  0  0  0  0  0  0  0999 V2000
   11.2208   -7.1726    0.0000 N   0  0  0  0  0  0  0  0  0  0  0  0
   11.8941   -6.6959    0.0000 C   0  0  0  0  0  0  0  0  0  0  0  0
   11.6506   -5.9076    0.0000 N   0  0  0  0  0  0  0  0  0  0  0  0
   10.8231   -5.8970    0.0000 C   0  0  0  0  0  0  0  0  0  0  0  0
   10.5616   -6.6786    0.0000 C   0  0  0  0  0  0  0  0  0  0  0  0
   12.6752   -6.9614    0.0000 N   0  0  0  0  0  0  0  0  0  0  0  0
    9.7740   -6.9242    0.0000 C   0  0  0  0  0  0  0  0  0  0  0  0
    9.1675   -6.3650    0.0000 C   0  0  0  0  0  0  0  0  0  0  0  0
    8.3799   -6.6107    0.0000 C   0  0  0  0  0  0  0  0  0  0  0  0
    7.7734   -6.0514    0.0000 N   0  0  0  0  0  0  0  0  0  0  0  0
  5  1  1  0
  1  2  1  0
  2  6  1  0
  5  7  1  0
  2  3  2  0
  7  8  2  0
  3  4  1  0
  8  9  1  0
  4  5  2  0
  9 10  1  0
M  END

> <chembl_id>
CHEMBL240306

> <chembl_pref_name>
None

$$$$

     RDKit          2D

 11 12  0  0  0  0  0  0  0  0999 V2000
    9.2263   -3.9067    0.0000 C   0  0  0  0  0  0  0  0  0  0  0  0
    9.9474   -4.3101    0.0000 C   0  0  0  0  0  0  0  0  0  0  0  0
    9.9578   -5.1326    0.0000 C   0  0  0  0  0  0  0  0  0  0  0  0
    9.2494   -5.5554    0.0000 C   0  0  0  0  0  0  0  0  0  0  0  0
    8.5305   -5.1556    0.0000 C   0  0  0  0  0  0  0  0  0  0  0  0
    7.8221   -5.5783    0.0000 C   0  0  0  0  0  0  0  0  0  0  0  0
    7.1010   -5.1750    0.0000 C   0  0  0  0  0  0  0  0  0  0  0  0
    7.0884   -4.3489    0.0000 C   0  0  0  0  0  0  0  0  0  0  0  0
    7.7968   -3.9262    0.0000 C   0  0  0  0  0  0  0  0  0  0  0  0
    8.5179   -4.3295    0.0000 C   0  0  0  0  0  0  0  0  0  0  0  0
    9.2137   -3.0806    0.0000 O   0  0  0  0  0  0  0  0  0  0  0  0
  1  2  1  0
  2  3  2  0
  3  4  1  0
  4  5  2  0
  5  6  1  0
  6  7  1  0
  7  8  1  0
  8  9  2  0
  9 10  1  0
  1 10  2  0
  5 10  1  0
  1 11  1  0
M  END

> <chembl_id>
CHEMBL3246813

> <chembl_pref_name>
None

$$$$

     RDKit          2D

  7  7  0  0  0  0  0  0  0  0999 V2000
    6.0006   -9.9587    0.0000 N   0  0  0  0  0  0  0  0  0  0  0  0
    6.4998  -10.6179    0.0000 N   0  0  0  0  0  0  0  0  0  0  0  0
    6.0296  -11.2959    0.0000 C   0  0  0  0  0  0  0  0  0  0  0  0
    5.2387  -11.0611    0.0000 C   0  0  0  0  0  0  0  0  0  0  0  0
    5.2197  -10.2331    0.0000 C   0  0  0  0  0  0  0  0  0  0  0  0
    4.5842  -11.5609    0.0000 C   0  0  0  0  0  0  0  0  0  0  0  0
    3.8242  -11.2442    0.0000 Cl  0  0  0  0  0  0  0  0  0  0  0  0
  1  2  1  0
  2  3  2  0
  3  4  1  0
  4  5  2  0
  1  5  1  0
  4  6  1  0
  6  7  1  0
M  END

> <chembl_id>
CHEMBL3276273

> <chembl_pref_name>
None

$$$$

     RDKit          2D

 10 10  0  0  0  0  0  0  0  0999 V2000
    0.8249    0.0000    0.0000 O   0  0  0  0  0  0  0  0  0  0  0  0
    0.0000   -1.4307    0.0000 O   0  0  0  0  0  0  0  0  0  0  0  0
    1.2375   -0.7135    0.0000 N   0  0  0  0  0  0  0  0  0  0  0  0
    0.8249   -1.4307    0.0000 N   0  0  0  0  0  0  0  0  0  0  0  0
    2.0661   -0.7135    0.0000 C   0  0  0  0  0  0  0  0  0  0  0  0
    2.4786    0.0000    0.0000 C   0  0  0  0  0  0  0  0  0  0  0  0
    2.4786   -1.4307    0.0000 C   0  0  0  0  0  0  0  0  0  0  0  0
    3.3036    0.0000    0.0000 C   0  0  0  0  0  0  0  0  0  0  0  0
    3.3036   -1.4307    0.0000 C   0  0  0  0  0  0  0  0  0  0  0  0
    3.7161   -0.7135    0.0000 C   0  0  0  0  0  0  0  0  0  0  0  0
  1  3  1  0
  2  4  2  0
  3  4  1  0
  3  5  1  0
  5  6  2  0
  5  7  1  0
  6  8  1  0
  7  9  2  0
  8 10  2  0
  9 10  1  0
M  END

> <chembl_id>
CHEMBL388471

> <chembl_pref_name>
CUPFERRON

$$$$

     RDKit          2D

  9  9  0  0  0  0  0  0  0  0999 V2000
   -2.9288    0.2836    0.0000 C   0  0  0  0  0  0  0  0  0  0  0  0
   -2.0636   -0.2174    0.0000 C   0  0  0  0  0  0  0  0  0  0  0  0
   -1.1970    0.2816    0.0000 C   0  0  0  0  0  0  0  0  0  0  0  0
   -1.0914    1.2760    0.0000 N   0  0  0  0  0  0  0  0  0  0  0  0
   -0.1130    1.4828    0.0000 N   0  0  0  0  0  0  0  0  0  0  0  0
    0.3860    0.6162    0.0000 C   0  0  0  0  0  0  0  0  0  0  0  0
    1.3804    0.5106    0.0000 C   0  0  0  0  0  0  0  0  0  0  0  0
    1.9692    1.3188    0.0000 C   0  0  0  0  0  0  0  0  0  0  0  0
   -0.2838   -0.1262    0.0000 N   0  0  0  0  0  0  0  0  0  0  0  0
  1  2  1  0
  2  3  1  0
  3  4  2  0
  4  5  1  0
  5  6  1  0
  6  7  1  0
  7  8  1  0
  6  9  2  0
  9  3  1  0
M  END

> <chembl_id>
CHEMBL4582271

> <chembl_pref_name>
None

$$$$
 
     RDKit          2D

  7  7  0  0  0  0  0  0  0  0999 V2000
   16.6946  -21.1232    0.0000 C   0  0  0  0  0  0  0  0  0  0  0  0
   17.5118  -21.1232    0.0000 N   0  0  0  0  0  0  0  0  0  0  0  0
   17.7662  -20.3465    0.0000 C   0  0  0  0  0  0  0  0  0  0  0  0
   17.1032  -19.8644    0.0000 N   0  0  0  0  0  0  0  0  0  0  0  0
   16.4445  -20.3465    0.0000 C   0  0  0  0  0  0  0  0  0  0  0  0
   18.5424  -20.0912    0.0000 C   0  0  0  0  0  0  0  0  0  0  0  0
   19.3199  -19.8398    0.0000 N   0  0  0  0  0  0  0  0  0  0  0  0
  1  2  1  0
  2  3  2  0
  3  4  1  0
  4  5  1  0
  5  1  2  0
  6  7  3  0
  3  6  1  0
M  END

> <chembl_id>
CHEMBL4582852

> <chembl_pref_name>
None

$$$$

     RDKit          2D

  9  9  0  0  0  0  0  0  0  0999 V2000
    8.9644  -14.5635    0.0000 C   0  0  0  0  0  0  0  0  0  0  0  0
    8.5519  -13.8490    0.0000 S   0  0  0  0  0  0  0  0  0  0  0  0
    7.7269  -13.8490    0.0000 C   0  0  0  0  0  0  0  0  0  0  0  0
    7.3144  -14.5635    0.0000 C   0  0  0  0  0  0  0  0  0  0  0  0
    6.4894  -14.5635    0.0000 C   0  0  0  0  0  0  0  0  0  0  0  0
    6.0769  -13.8490    0.0000 C   0  0  0  0  0  0  0  0  0  0  0  0
    6.4894  -13.1345    0.0000 C   0  0  0  0  0  0  0  0  0  0  0  0
    7.3144  -13.1345    0.0000 C   0  0  0  0  0  0  0  0  0  0  0  0
    5.2519  -13.8490    0.0000 F   0  0  0  0  0  0  0  0  0  0  0  0
  1  2  1  0
  2  3  1  0
  3  4  1  0
  4  5  2  0
  5  6  1  0
  6  7  2  0
  7  8  1  0
  3  8  2  0
  6  9  1  0
M  END

> <chembl_id>
CHEMBL2323853

> <chembl_pref_name>
None

$$$$

     RDKit          2D

 10 10  0  0  0  0  0  0  0  0999 V2000
   -2.0366    0.2344    0.0000 C   0  0  0  0  0  0  0  0  0  0  0  0
   -1.1688   -0.2624    0.0000 O   0  0  0  0  0  0  0  0  0  0  0  0
   -0.3046    0.2406    0.0000 C   0  0  0  0  0  0  0  0  0  0  0  0
    0.5632   -0.2562    0.0000 N   0  0  0  0  0  0  0  0  0  0  0  0
    1.4274    0.2468    0.0000 C   0  0  0  0  0  0  0  0  0  0  0  0
    2.2952   -0.2500    0.0000 N   0  0  0  0  0  0  0  0  0  0  0  0
    1.4238    1.2468    0.0000 C   0  0  0  0  0  0  0  0  0  0  0  0
    0.5560    1.7438    0.0000 C   0  0  0  0  0  0  0  0  0  0  0  0
    0.5524    2.7436    0.0000 O   0  0  0  0  0  0  0  0  0  0  0  0
   -0.3082    1.2406    0.0000 N   0  0  0  0  0  0  0  0  0  0  0  0
  1  2  1  0
  2  3  1  0
  3  4  2  0
  4  5  1  0
  5  6  1  0
  5  7  2  0
  7  8  1  0
  8  9  2  0
  8 10  1  0
 10  3  1  0
M  END

> <chembl_id>
CHEMBL4538757

> <chembl_pref_name>
None

$$$$

     RDKit          2D

 10 10  0  0  0  0  0  0  0  0999 V2000
    2.9777    0.7334    0.0000 N   0  0  0  0  0  0  0  0  0  0  0  0
    2.9766   -0.0940    0.0000 C   0  0  0  0  0  0  0  0  0  0  0  0
    3.6914   -0.5069    0.0000 N   0  0  0  0  0  0  0  0  0  0  0  0
    4.4078   -0.0935    0.0000 C   0  0  0  0  0  0  0  0  0  0  0  0
    4.4050    0.7370    0.0000 C   0  0  0  0  0  0  0  0  0  0  0  0
    3.6896    1.1461    0.0000 C   0  0  0  0  0  0  0  0  0  0  0  0
    5.1179    1.1522    0.0000 N   0  0  0  0  0  0  0  0  0  0  0  0
    2.2618   -0.5059    0.0000 N   0  0  0  0  0  0  0  0  0  0  0  0
    3.6871    1.9711    0.0000 O   0  0  0  0  0  0  0  0  0  0  0  0
    5.1230   -0.5049    0.0000 N   0  0  0  0  0  0  0  0  0  0  0  0
  2  3  2  0
  5  6  1  0
  6  1  1  0
  1  2  1  0
  5  7  1  0
  3  4  1  0
  2  8  1  0
  6  9  2  0
  4  5  2  0
  4 10  1  0
M  END

> <chembl_id>
CHEMBL2151965

> <chembl_pref_name>
None

$$$$

     RDKit          2D

 11 11  0  0  0  0  0  0  0  0999 V2000
   19.8464   -6.5003    0.0000 C   0  0  0  0  0  0  0  0  0  0  0  0
   19.8453   -7.3199    0.0000 C   0  0  0  0  0  0  0  0  0  0  0  0
   20.5533   -7.7288    0.0000 C   0  0  0  0  0  0  0  0  0  0  0  0
   21.2630   -7.3194    0.0000 C   0  0  0  0  0  0  0  0  0  0  0  0
   21.2602   -6.4967    0.0000 C   0  0  0  0  0  0  0  0  0  0  0  0
   20.5515   -6.0915    0.0000 C   0  0  0  0  0  0  0  0  0  0  0  0
   21.9713   -7.7269    0.0000 C   0  0  0  0  0  0  0  0  0  0  0  0
   22.6784   -7.3172    0.0000 C   0  0  0  0  0  0  0  0  0  0  0  0
   23.3868   -7.7247    0.0000 C   0  0  0  0  0  0  0  0  0  0  0  0
   24.0938   -7.3150    0.0000 N   0  0  0  0  0  0  0  0  0  0  0  0
   23.3880   -8.5419    0.0000 C   0  0  0  0  0  0  0  0  0  0  0  0
  1  2  2  0
  2  3  1  0
  3  4  2  0
  4  5  1  0
  5  6  2  0
  6  1  1  0
  4  7  1  0
  7  8  2  0
  8  9  1  0
  9 10  1  0
  9 11  1  0
M  END

> <chembl_id>
CHEMBL3933915

> <chembl_pref_name>
None

$$$$

     RDKit          2D

  9  9  0  0  0  0  0  0  0  0999 V2000
    6.7027   -2.9190    0.0000 C   0  0  0  0  0  0  0  0  0  0  0  0
    6.7015   -3.7458    0.0000 C   0  0  0  0  0  0  0  0  0  0  0  0
    7.4159   -4.1584    0.0000 C   0  0  0  0  0  0  0  0  0  0  0  0
    7.4141   -2.5064    0.0000 C   0  0  0  0  0  0  0  0  0  0  0  0
    8.1290   -2.9154    0.0000 C   0  0  0  0  0  0  0  0  0  0  0  0
    8.1298   -3.7416    0.0000 C   0  0  0  0  0  0  0  0  0  0  0  0
    7.4078   -4.9802    0.0000 O   0  0  0  0  0  0  0  0  0  0  0  0
    5.9885   -2.5069    0.0000 O   0  0  0  0  0  0  0  0  0  0  0  0
    8.8450   -4.1519    0.0000 N   0  0  0  0  0  0  0  0  0  0  0  0
  4  1  2  0
  2  3  2  0
  5  6  2  0
  3  6  1  0
  3  7  1  0
  1  2  1  0
  1  8  1  0
  5  4  1  0
  6  9  1  0
M  END

> <chembl_id>
CHEMBL270197

> <chembl_pref_name>
None

$$$$

     RDKit          2D

 10 10  0  0  0  0  0  0  0  0999 V2000
   25.1251  -21.5276    0.0000 C   0  0  0  0  0  0  0  0  0  0  0  0
   25.1240  -22.3471    0.0000 C   0  0  0  0  0  0  0  0  0  0  0  0
   25.8320  -22.7561    0.0000 C   0  0  0  0  0  0  0  0  0  0  0  0
   26.5417  -22.3466    0.0000 C   0  0  0  0  0  0  0  0  0  0  0  0
   26.5389  -21.5240    0.0000 C   0  0  0  0  0  0  0  0  0  0  0  0
   25.8303  -21.1187    0.0000 C   0  0  0  0  0  0  0  0  0  0  0  0
   25.8278  -20.3015    0.0000 C   0  0  0  0  0  0  0  0  0  0  0  0
   26.5343  -19.8908    0.0000 O   0  0  0  0  0  0  0  0  0  0  0  0
   27.2450  -21.1127    0.0000 F   0  0  0  0  0  0  0  0  0  0  0  0
   25.8319  -23.5733    0.0000 F   0  0  0  0  0  0  0  0  0  0  0  0
  1  2  2  0
  2  3  1  0
  3  4  2  0
  4  5  1  0
  5  6  2  0
  6  1  1  0
  6  7  1  0
  7  8  2  0
  5  9  1  0
  3 10  1  0
M  END

> <chembl_id>
CHEMBL4092237

> <chembl_pref_name>
None

$$$$

     RDKit          2D

  8  8  0  0  0  0  0  0  0  0999 V2000
    0.0917   -2.1542    0.0000 C   0  0  0  0  0  0  0  0  0  0  0  0
   -0.3958   -2.8167    0.0000 C   0  0  0  0  0  0  0  0  0  0  0  0
    0.5042   -0.8792    0.0000 N   0  0  0  0  0  0  0  0  0  0  0  0
   -0.1625   -1.3542    0.0000 C   0  0  0  0  0  0  0  0  0  0  0  0
    0.9042   -2.1542    0.0000 C   0  0  0  0  0  0  0  0  0  0  0  0
    1.1625   -1.3750    0.0000 C   0  0  0  0  0  0  0  0  0  0  0  0
   -1.2125   -2.7292    0.0000 O   0  0  0  0  0  0  0  0  0  0  0  0
   -0.0583   -3.5750    0.0000 O   0  0  0  0  0  0  0  0  0  0  0  0
  2  1  1  0
  3  4  1  0
  4  1  2  0
  5  1  1  0
  6  5  2  0
  7  2  2  0
  8  2  1  0
  3  6  1  0
M  END

> <chembl_id>
CHEMBL79155

> <chembl_pref_name>
None

$$$$

     RDKit          2D

 10 11  0  0  0  0  0  0  0  0999 V2000
    1.1580    1.9206    0.0000 C   0  0  0  0  0  0  0  0  0  0  0  0
    0.2918    2.4204    0.0000 C   0  0  0  0  0  0  0  0  0  0  0  0
   -0.4510    1.7510    0.0000 N   0  0  0  0  0  0  0  0  0  0  0  0
   -0.0440    0.8376    0.0000 C   0  0  0  0  0  0  0  0  0  0  0  0
   -0.5438   -0.0286    0.0000 C   0  0  0  0  0  0  0  0  0  0  0  0
   -0.1368   -0.9420    0.0000 C   0  0  0  0  0  0  0  0  0  0  0  0
   -0.8796   -1.6114    0.0000 C   0  0  0  0  0  0  0  0  0  0  0  0
   -1.7458   -1.1116    0.0000 N   0  0  0  0  0  0  0  0  0  0  0  0
   -1.5382   -0.1334    0.0000 C   0  0  0  0  0  0  0  0  0  0  0  0
    0.9504    0.9424    0.0000 N   0  0  0  0  0  0  0  0  0  0  0  0
  1  2  2  0
  2  3  1  0
  3  4  1  0
  4  5  1  0
  5  6  1  0
  6  7  1  0
  7  8  1  0
  8  9  1  0
  4 10  2  0
 10  1  1  0
  9  5  1  0
M  END

> <chembl_id>
CHEMBL4579232

> <chembl_pref_name>
None

$$$$

     RDKit          2D

 10 10  0  0  0  0  0  0  0  0999 V2000
    2.1614   -1.5314    0.0000 O   0  0  0  0  0  0  0  0  0  0  0  0
    1.2108   -1.2214    0.0000 C   0  0  0  0  0  0  0  0  0  0  0  0
    1.0040   -0.2430    0.0000 C   0  0  0  0  0  0  0  0  0  0  0  0
    1.6740    0.4994    0.0000 C   0  0  0  0  0  0  0  0  0  0  0  0
    1.1750    1.3660    0.0000 O   0  0  0  0  0  0  0  0  0  0  0  0
    0.1966    1.1590    0.0000 N   0  0  0  0  0  0  0  0  0  0  0  0
    0.0908    0.1648    0.0000 C   0  0  0  0  0  0  0  0  0  0  0  0
   -0.7756   -0.3342    0.0000 C   0  0  0  0  0  0  0  0  0  0  0  0
   -1.6410    0.1668    0.0000 F   0  0  0  0  0  0  0  0  0  0  0  0
   -0.7770   -1.3342    0.0000 F   0  0  0  0  0  0  0  0  0  0  0  0
  1  2  1  0
  2  3  1  0
  3  4  2  0
  4  5  1  0
  5  6  1  0
  6  7  2  0
  7  8  1  0
  8  9  1  0
  8 10  1  0
  7  3  1  0
M  END

> <chembl_id>
CHEMBL4565651

> <chembl_pref_name>
None

$$$$

     RDKit          2D

 10 10  0  0  0  0  0  0  0  0999 V2000
    1.8164   -1.9192    0.0000 C   0  0  0  0  0  0  0  0  0  0  0  0
    0.9238   -1.4686    0.0000 C   0  0  0  0  0  0  0  0  0  0  0  0
    0.8678   -0.4702    0.0000 C   0  0  0  0  0  0  0  0  0  0  0  0
    1.7046    0.0774    0.0000 O   0  0  0  0  0  0  0  0  0  0  0  0
   -0.0248   -0.0196    0.0000 C   0  0  0  0  0  0  0  0  0  0  0  0
   -0.1850    0.9676    0.0000 C   0  0  0  0  0  0  0  0  0  0  0  0
   -1.1732    1.1204    0.0000 C   0  0  0  0  0  0  0  0  0  0  0  0
   -1.6304    2.0096    0.0000 N   0  0  0  0  0  0  0  0  0  0  0  0
   -1.6240    0.2276    0.0000 O   0  0  0  0  0  0  0  0  0  0  0  0
   -0.9142   -0.4766    0.0000 N   0  0  0  0  0  0  0  0  0  0  0  0
  1  2  1  0
  2  3  1  0
  3  4  2  0
  3  5  1  0
  5  6  1  0
  6  7  2  0
  7  8  1  0
  7  9  1  0
  9 10  1  0
 10  5  2  0
M  END

> <chembl_id>
CHEMBL4515701

> <chembl_pref_name>
None

$$$$

     RDKit          2D

  8  8  0  0  0  0  0  0  0  0999 V2000
   -2.2328   -1.8646    0.0000 O   0  0  0  0  0  0  0  0  0  0  0  0
   -1.3664   -1.3654    0.0000 C   0  0  0  0  0  0  0  0  0  0  0  0
   -0.5008   -1.8660    0.0000 C   0  0  0  0  0  0  0  0  0  0  0  0
    0.3656   -1.3666    0.0000 C   0  0  0  0  0  0  0  0  0  0  0  0
    0.3664   -0.3666    0.0000 C   0  0  0  0  0  0  0  0  0  0  0  0
    1.2328    0.1326    0.0000 Cl  0  0  0  0  0  0  0  0  0  0  0  0
   -0.4992    0.1340    0.0000 C   0  0  0  0  0  0  0  0  0  0  0  0
   -1.3656   -0.3654    0.0000 N   0  0  0  0  0  0  0  0  0  0  0  0
  1  2  1  0
  2  3  2  0
  3  4  1  0
  4  5  2  0
  5  6  1  0
  5  7  1  0
  7  8  2  0
  8  2  1  0
M  END

> <chembl_id>
CHEMBL4535875

> <chembl_pref_name>
None

$$$$

     RDKit          2D

 10 10  0  0  0  0  0  0  0  0999 V2000
    1.8164   -1.9192    0.0000 C   0  0  0  0  0  0  0  0  0  0  0  0
    0.9238   -1.4686    0.0000 O   0  0  0  0  0  0  0  0  0  0  0  0
    0.8678   -0.4702    0.0000 C   0  0  0  0  0  0  0  0  0  0  0  0
    1.7046    0.0774    0.0000 O   0  0  0  0  0  0  0  0  0  0  0  0
   -0.0248   -0.0196    0.0000 C   0  0  0  0  0  0  0  0  0  0  0  0
   -0.1850    0.9676    0.0000 C   0  0  0  0  0  0  0  0  0  0  0  0
   -1.1732    1.1204    0.0000 C   0  0  0  0  0  0  0  0  0  0  0  0
   -1.6304    2.0096    0.0000 F   0  0  0  0  0  0  0  0  0  0  0  0
   -1.6240    0.2276    0.0000 C   0  0  0  0  0  0  0  0  0  0  0  0
   -0.9142   -0.4766    0.0000 N   0  0  0  0  0  0  0  0  0  0  0  0
  1  2  1  0
  2  3  1  0
  3  4  2  0
  3  5  1  0
  5  6  2  0
  6  7  1  0
  7  8  1  0
  7  9  2  0
  9 10  1  0
 10  5  1  0
M  END

> <chembl_id>
CHEMBL4521308

> <chembl_pref_name>
None

$$$$

     RDKit          2D

 11 12  0  0  0  0  0  0  0  0999 V2000
    1.5534    1.8342    0.0000 O   0  0  0  0  0  0  0  0  0  0  0  0
    0.6892    1.3310    0.0000 C   0  0  0  0  0  0  0  0  0  0  0  0
   -0.1786    1.8278    0.0000 C   0  0  0  0  0  0  0  0  0  0  0  0
   -1.0428    1.3248    0.0000 N   0  0  0  0  0  0  0  0  0  0  0  0
   -1.0392    0.3248    0.0000 C   0  0  0  0  0  0  0  0  0  0  0  0
   -1.9034   -0.1782    0.0000 C   0  0  0  0  0  0  0  0  0  0  0  0
   -1.8998   -1.1782    0.0000 C   0  0  0  0  0  0  0  0  0  0  0  0
   -1.0320   -1.6752    0.0000 N   0  0  0  0  0  0  0  0  0  0  0  0
   -0.1678   -1.1720    0.0000 C   0  0  0  0  0  0  0  0  0  0  0  0
   -0.1714   -0.1720    0.0000 C   0  0  0  0  0  0  0  0  0  0  0  0
    0.6928    0.3310    0.0000 N   0  0  0  0  0  0  0  0  0  0  0  0
  1  2  2  0
  2  3  1  0
  3  4  1  0
  4  5  1  0
  5  6  2  0
  6  7  1  0
  7  8  2  0
  8  9  1  0
  9 10  2  0
 10 11  1  0
 11  2  1  0
 10  5  1  0
M  END

> <chembl_id>
CHEMBL4538612

> <chembl_pref_name>
None

$$$$

     RDKit          2D

 10 11  0  0  0  0  0  0  0  0999 V2000
    0.9024    2.0626    0.0000 C   0  0  0  0  0  0  0  0  0  0  0  0
    0.9032    1.0626    0.0000 C   0  0  0  0  0  0  0  0  0  0  0  0
    1.7696    0.5632    0.0000 C   0  0  0  0  0  0  0  0  0  0  0  0
    1.7704   -0.4368    0.0000 C   0  0  0  0  0  0  0  0  0  0  0  0
    0.9048   -0.9374    0.0000 C   0  0  0  0  0  0  0  0  0  0  0  0
    0.0384   -0.4380    0.0000 C   0  0  0  0  0  0  0  0  0  0  0  0
   -0.9124   -0.7478    0.0000 N   0  0  0  0  0  0  0  0  0  0  0  0
   -1.5008    0.0606    0.0000 C   0  0  0  0  0  0  0  0  0  0  0  0
   -0.9136    0.8702    0.0000 C   0  0  0  0  0  0  0  0  0  0  0  0
    0.0376    0.5620    0.0000 N   0  0  0  0  0  0  0  0  0  0  0  0
  1  2  1  0
  2  3  1  0
  3  4  1  0
  4  5  1  0
  5  6  1  0
  6  7  2  0
  7  8  1  0
  8  9  2  0
  9 10  1  0
 10  2  1  0
 10  6  1  0
M  END

> <chembl_id>
CHEMBL4565706

> <chembl_pref_name>
None

$$$$

     RDKit          2D

 11 11  0  0  0  0  0  0  0  0999 V2000
    0.3968    2.8986    0.0000 N   0  0  0  0  0  0  0  0  0  0  0  0
    0.3948    1.8988    0.0000 C   0  0  0  0  0  0  0  0  0  0  0  0
    0.3926    0.8988    0.0000 C   0  0  0  0  0  0  0  0  0  0  0  0
   -0.4744    0.4004    0.0000 C   0  0  0  0  0  0  0  0  0  0  0  0
   -1.3394    0.9022    0.0000 N   0  0  0  0  0  0  0  0  0  0  0  0
   -0.4764   -0.5994    0.0000 C   0  0  0  0  0  0  0  0  0  0  0  0
   -1.3434   -1.0978    0.0000 C   0  0  0  0  0  0  0  0  0  0  0  0
   -1.3454   -2.0978    0.0000 C   0  0  0  0  0  0  0  0  0  0  0  0
   -0.4804   -2.5994    0.0000 C   0  0  0  0  0  0  0  0  0  0  0  0
    0.3866   -2.1012    0.0000 C   0  0  0  0  0  0  0  0  0  0  0  0
    0.3886   -1.1012    0.0000 C   0  0  0  0  0  0  0  0  0  0  0  0
  1  2  3  0
  2  3  1  0
  3  4  1  0
  4  5  1  6
  4  6  1  0
  6  7  2  0
  7  8  1  0
  8  9  2  0
  9 10  1  0
 10 11  2  0
 11  6  1  0
M  END

> <chembl_id>
CHEMBL4565195

> <chembl_pref_name>
None

$$$$

     RDKit          2D

 11 11  0  0  0  0  0  0  0  0999 V2000
   -2.2140   -0.2346    0.0000 C   0  0  0  0  0  0  0  0  0  0  0  0
   -1.3470    0.2636    0.0000 O   0  0  0  0  0  0  0  0  0  0  0  0
   -0.4820   -0.2380    0.0000 C   0  0  0  0  0  0  0  0  0  0  0  0
   -0.4840   -1.2380    0.0000 C   0  0  0  0  0  0  0  0  0  0  0  0
    0.3810   -1.7398    0.0000 C   0  0  0  0  0  0  0  0  0  0  0  0
    1.2480   -1.2414    0.0000 C   0  0  0  0  0  0  0  0  0  0  0  0
    1.2502   -0.2414    0.0000 C   0  0  0  0  0  0  0  0  0  0  0  0
    0.3850    0.2602    0.0000 C   0  0  0  0  0  0  0  0  0  0  0  0
    0.3872    1.2602    0.0000 C   0  0  0  0  0  0  0  0  0  0  0  0
    1.2542    1.7584    0.0000 C   0  0  0  0  0  0  0  0  0  0  0  0
    2.1212    2.2568    0.0000 N   0  0  0  0  0  0  0  0  0  0  0  0
  1  2  1  0
  2  3  1  0
  3  4  2  0
  4  5  1  0
  5  6  2  0
  6  7  1  0
  7  8  2  0
  8  9  1  0
  9 10  1  0
 10 11  3  0
  8  3  1  0
M  END

> <chembl_id>
CHEMBL4551609

> <chembl_pref_name>
None

$$$$

     RDKit          2D

  9  9  0  0  0  0  0  0  0  0999 V2000
    2.8830    0.0000    0.0000 O   0  0  0  0  0  0  0  0  0  0  0  0
    1.2339   -0.0115    0.0000 N   0  0  0  0  0  0  0  0  0  0  0  0
    0.4267   -1.4242    0.0000 N   0  0  0  0  0  0  0  0  0  0  0  0
    1.6606   -0.7179    0.0000 C   0  0  0  0  0  0  0  0  0  0  0  0
    2.4766   -0.7179    0.0000 C   0  0  0  0  0  0  0  0  0  0  0  0
    1.2339   -1.4242    0.0000 C   0  0  0  0  0  0  0  0  0  0  0  0
    0.4267   -0.0115    0.0000 C   0  0  0  0  0  0  0  0  0  0  0  0
    0.0000   -0.7179    0.0000 C   0  0  0  0  0  0  0  0  0  0  0  0
    2.8830   -1.4329    0.0000 C   0  0  0  0  0  0  0  0  0  0  0  0
  1  5  2  0
  2  4  2  0
  2  7  1  0
  3  6  2  0
  3  8  1  0
  4  5  1  0
  4  6  1  0
  5  9  1  0
  7  8  2  0
M  END

> <chembl_id>
CHEMBL3188662

> <chembl_pref_name>
None

$$$$

     RDKit          2D

 11 12  0  0  0  0  0  0  0  0999 V2000
    6.4695   -5.5720    0.0000 C   0  0  0  0  0  0  0  0  0  0  0  0
    7.5029   -6.6011    0.0000 O   0  0  0  0  0  0  0  0  0  0  0  0
    5.7612   -5.9803    0.0000 C   0  0  0  0  0  0  0  0  0  0  0  0
    7.7280   -5.1595    0.0000 O   0  0  0  0  0  0  0  0  0  0  0  0
    6.4695   -4.7511    0.0000 C   0  0  0  0  0  0  0  0  0  0  0  0
    5.0528   -5.5761    0.0000 C   0  0  0  0  0  0  0  0  0  0  0  0
    7.2446   -4.4927    0.0000 C   0  0  0  0  0  0  0  0  0  0  0  0
    7.5029   -3.7177    0.0000 C   0  0  0  0  0  0  0  0  0  0  0  0
    5.0528   -4.7511    0.0000 C   0  0  0  0  0  0  0  0  0  0  0  0
    7.2446   -5.8178    0.0000 C   0  0  0  0  0  0  0  0  0  0  0  0
    5.7612   -4.3302    0.0000 C   0  0  0  0  0  0  0  0  0  0  0  0
  3  1  1  0
 10  1  1  0
  8  7  2  0
  9  6  1  0
  4 10  1  0
 11  9  2  0
  4  7  1  0
  5  1  2  0
 11  5  1  0
  7  5  1  0
  6  3  2  0
  2 10  2  0
M  END

> <chembl_id>
CHEMBL2430156

> <chembl_pref_name>
None

$$$$

     RDKit          2D

 10 10  0  0  0  0  0  0  0  0999 V2000
    2.0646   -2.1580    0.0000 C   0  0  0  0  0  0  0  0  0  0  0  0
    2.0086   -1.1596    0.0000 C   0  0  0  0  0  0  0  0  0  0  0  0
    1.1160   -0.7090    0.0000 O   0  0  0  0  0  0  0  0  0  0  0  0
    1.0600    0.2894    0.0000 C   0  0  0  0  0  0  0  0  0  0  0  0
    1.8966    0.8370    0.0000 O   0  0  0  0  0  0  0  0  0  0  0  0
    0.1674    0.7400    0.0000 C   0  0  0  0  0  0  0  0  0  0  0  0
    0.0072    1.7272    0.0000 N   0  0  0  0  0  0  0  0  0  0  0  0
   -0.9810    1.8798    0.0000 C   0  0  0  0  0  0  0  0  0  0  0  0
   -1.4318    0.9872    0.0000 C   0  0  0  0  0  0  0  0  0  0  0  0
   -0.7220    0.2828    0.0000 N   0  0  0  0  0  0  0  0  0  0  0  0
  1  2  1  0
  2  3  1  0
  3  4  1  0
  4  5  2  0
  4  6  1  0
  6  7  2  0
  7  8  1  0
  8  9  2  0
  9 10  1  0
 10  6  1  0
M  END

> <chembl_id>
CHEMBL4554157

> <chembl_pref_name>
None

$$$$

     RDKit          2D

 10 10  0  0  0  0  0  0  0  0999 V2000
    0.9864    0.7677    0.0000 O   0  0  0  0  0  0  0  0  0  0  0  0
   -0.4425    0.7677    0.0000 O   0  0  0  0  0  0  0  0  0  0  0  0
   -1.1570   -0.4698    0.0000 O   0  0  0  0  0  0  0  0  0  0  0  0
    0.9864   -1.7073    0.0000 N   0  0  0  0  0  0  0  0  0  0  0  0
    0.2719   -0.4698    0.0000 C   0  0  0  0  0  0  0  0  0  0  0  0
    0.9864   -0.0573    0.0000 C   0  0  0  0  0  0  0  0  0  0  0  0
   -0.4425   -0.0573    0.0000 C   0  0  0  0  0  0  0  0  0  0  0  0
    0.2719   -1.2948    0.0000 C   0  0  0  0  0  0  0  0  0  0  0  0
    1.7009   -0.4698    0.0000 C   0  0  0  0  0  0  0  0  0  0  0  0
    1.7009   -1.2948    0.0000 C   0  0  0  0  0  0  0  0  0  0  0  0
  1  6  1  0
  2  7  2  0
  3  7  1  0
  4  8  1  0
  4 10  2  0
  5  6  1  0
  5  7  1  0
  5  8  2  0
  6  9  2  0
  9 10  1  0
M  END

> <chembl_id>
CHEMBL1610346

> <chembl_pref_name>
None

$$$$

     RDKit          2D

  9  9  0  0  0  0  0  0  0  0999 V2000
   -2.5042    0.8875    0.0000 N   0  0  0  0  0  0  0  0  0  0  0  0
   -2.5042    0.0625    0.0000 N   0  0  0  0  0  0  0  0  0  0  0  0
   -1.7921   -0.3458    0.0000 C   0  0  0  0  0  0  0  0  0  0  0  0
   -1.0801    0.0625    0.0000 C   0  0  0  0  0  0  0  0  0  0  0  0
   -1.0801    0.8875    0.0000 C   0  0  0  0  0  0  0  0  0  0  0  0
   -1.7921    1.3042    0.0000 C   0  0  0  0  0  0  0  0  0  0  0  0
   -1.7921    2.1292    0.0000 O   0  0  0  0  0  0  0  0  0  0  0  0
   -1.7921   -1.1708    0.0000 C   0  0  0  0  0  0  0  0  0  0  0  0
   -1.0777   -1.5833    0.0000 O   0  0  0  0  0  0  0  0  0  0  0  0
  2  3  2  0
  3  4  1  0
  4  5  2  0
  5  6  1  0
  6  7  2  0
  1  2  1  0
  3  8  1  0
  1  6  1  0
  8  9  1  0
M  END

> <chembl_id>
CHEMBL1269219

> <chembl_pref_name>
None

$$$$

     RDKit          2D

 10 10  0  0  0  0  0  0  0  0999 V2000
   -2.8417   -5.4875    0.0000 N   0  0  0  0  0  0  0  0  0  0  0  0
   -2.8417   -6.3125    0.0000 N   0  0  0  0  0  0  0  0  0  0  0  0
   -2.1296   -6.7208    0.0000 C   0  0  0  0  0  0  0  0  0  0  0  0
   -1.4176   -6.3125    0.0000 C   0  0  0  0  0  0  0  0  0  0  0  0
   -1.4176   -5.4875    0.0000 C   0  0  0  0  0  0  0  0  0  0  0  0
   -2.1296   -5.0708    0.0000 C   0  0  0  0  0  0  0  0  0  0  0  0
   -2.1296   -4.2458    0.0000 O   0  0  0  0  0  0  0  0  0  0  0  0
   -2.1296   -7.5458    0.0000 C   0  0  0  0  0  0  0  0  0  0  0  0
   -1.4152   -7.9583    0.0000 O   0  0  0  0  0  0  0  0  0  0  0  0
   -3.5573   -5.0771    0.0000 C   0  0  0  0  0  0  0  0  0  0  0  0
  3  4  1  0
  4  5  2  0
  5  6  1  0
  6  7  2  0
  1  2  1  0
  3  8  1  0
  1  6  1  0
  8  9  1  0
  2  3  2  0
  1 10  1  0
M  END

> <chembl_id>
CHEMBL1269222

> <chembl_pref_name>
None

$$$$

     RDKit          2D

 10 10  0  0  0  0  0  0  0  0999 V2000
    0.8917   -0.6792    0.0000 N   0  0  0  0  0  0  0  0  0  0  0  0
   -3.4000   -0.6792    0.0000 N   0  0  0  0  0  0  0  0  0  0  0  0
   -1.2583   -0.2667    0.0000 N   0  0  0  0  0  0  0  0  0  0  0  0
   -2.6833   -0.2667    0.0000 C   0  0  0  0  0  0  0  0  0  0  0  0
    0.1792   -0.2750    0.0000 C   0  0  0  0  0  0  0  0  0  0  0  0
   -1.9708    0.1458    0.0000 C   0  0  0  0  0  0  0  0  0  0  0  0
   -0.5375    0.1458    0.0000 C   0  0  0  0  0  0  0  0  0  0  0  0
   -1.2583    1.3833    0.0000 C   0  0  0  0  0  0  0  0  0  0  0  0
   -0.5375    0.9708    0.0000 C   0  0  0  0  0  0  0  0  0  0  0  0
   -1.9708    0.9708    0.0000 C   0  0  0  0  0  0  0  0  0  0  0  0
  2  4  3  0
  3  7  2  0
  4  6  1  0
  5  1  3  0
  6  3  1  0
  7  5  1  0
  8  9  2  0
  9  7  1  0
 10  8  1  0
  6 10  2  0
M  END

> <chembl_id>
CHEMBL308846

> <chembl_pref_name>
None

$$$$

     RDKit          2D

  7  7  0  0  0  0  0  0  0  0999 V2000
    1.3542   -2.7375    0.0000 C   0  0  0  0  0  0  0  0  0  0  0  0
    2.1875   -2.7375    0.0000 C   0  0  0  0  0  0  0  0  0  0  0  0
    2.4417   -1.9417    0.0000 N   0  0  0  0  0  0  0  0  0  0  0  0
    1.7750   -1.4625    0.0000 N   0  0  0  0  0  0  0  0  0  0  0  0
    1.1000   -1.9417    0.0000 C   0  0  0  0  0  0  0  0  0  0  0  0
    0.9375   -3.4500    0.0000 N   0  0  0  0  0  0  0  0  0  0  0  0
    2.6667   -3.4042    0.0000 O   0  0  0  0  0  0  0  0  0  0  0  0
  2  1  1  0
  3  2  2  0
  4  5  1  0
  5  1  2  0
  6  1  1  0
  7  2  1  0
  3  4  1  0
M  END

> <chembl_id>
CHEMBL293420

> <chembl_pref_name>
None

$$$$

     RDKit          2D

  8  8  0  0  0  0  0  0  0  0999 V2000
   18.3594  -18.8301    0.0000 C   0  0  0  0  0  0  0  0  0  0  0  0
   17.5380  -18.8305    0.0000 C   0  0  0  0  0  0  0  0  0  0  0  0
   17.1317  -19.5354    0.0000 C   0  0  0  0  0  0  0  0  0  0  0  0
   17.5373  -20.2444    0.0000 N   0  0  0  0  0  0  0  0  0  0  0  0
   18.3579  -20.2444    0.0000 N   0  0  0  0  0  0  0  0  0  0  0  0
   18.7689  -19.5345    0.0000 C   0  0  0  0  0  0  0  0  0  0  0  0
   19.5861  -19.5338    0.0000 O   0  0  0  0  0  0  0  0  0  0  0  0
   18.7661  -20.9524    0.0000 C   0  0  0  0  0  0  0  0  0  0  0  0
  1  2  2  0
  2  3  1  0
  3  4  2  0
  4  5  1  0
  5  6  1  0
  6  1  1  0
  6  7  2  0
  5  8  1  0
M  END

> <chembl_id>
CHEMBL3228880

> <chembl_pref_name>
None

$$$$

     RDKit          2D

  9  9  0  0  0  0  0  0  0  0999 V2000
    8.4582   -2.7792    0.0000 S   0  0  0  0  0  0  0  0  0  0  0  0
    9.2832   -2.7792    0.0000 C   0  0  0  0  0  0  0  0  0  0  0  0
    9.5400   -1.9951    0.0000 N   0  0  0  0  0  0  0  0  0  0  0  0
    8.8707   -1.5084    0.0000 N   0  0  0  0  0  0  0  0  0  0  0  0
    8.2057   -1.9951    0.0000 C   0  0  0  0  0  0  0  0  0  0  0  0
    7.4210   -1.7405    0.0000 C   0  0  0  0  0  0  0  0  0  0  0  0
    9.7673   -3.4472    0.0000 C   0  0  0  0  0  0  0  0  0  0  0  0
    9.4309   -4.2004    0.0000 N   0  0  0  0  0  0  0  0  0  0  0  0
    9.9150   -4.8684    0.0000 O   0  0  0  0  0  0  0  0  0  0  0  0
  1  2  1  0
  2  3  2  0
  3  4  1  0
  4  5  2  0
  5  1  1  0
  5  6  1  0
  2  7  1  0
  7  8  2  0
  8  9  1  0
M  END

> <chembl_id>
CHEMBL3250346

> <chembl_pref_name>
None

$$$$

     RDKit          2D

 10 10  0  0  0  0  0  0  0  0999 V2000
    8.7689   -3.4091    0.0000 N   0  0  0  0  0  0  0  0  0  0  0  0
    8.7678   -4.2286    0.0000 C   0  0  0  0  0  0  0  0  0  0  0  0
    9.4758   -4.6376    0.0000 C   0  0  0  0  0  0  0  0  0  0  0  0
   10.1855   -4.2281    0.0000 C   0  0  0  0  0  0  0  0  0  0  0  0
   10.1827   -3.4055    0.0000 C   0  0  0  0  0  0  0  0  0  0  0  0
    9.4741   -3.0002    0.0000 C   0  0  0  0  0  0  0  0  0  0  0  0
   10.8888   -2.9942    0.0000 C   0  0  0  0  0  0  0  0  0  0  0  0
   11.5981   -3.4001    0.0000 N   0  0  0  0  0  0  0  0  0  0  0  0
   10.8858   -2.1770    0.0000 N   0  0  0  0  0  0  0  0  0  0  0  0
   11.5919   -1.7657    0.0000 O   0  0  0  0  0  0  0  0  0  0  0  0
  1  2  2  0
  2  3  1  0
  3  4  2  0
  4  5  1  0
  5  6  2  0
  6  1  1  0
  5  7  1  0
  7  8  1  0
  7  9  2  0
  9 10  1  0
M  END

> <chembl_id>
CHEMBL3263489

> <chembl_pref_name>
None

$$$$

     RDKit          2D

  8  8  0  0  0  0  0  0  0  0999 V2000
   -2.5458  -20.6208    0.0000 N   0  0  0  0  0  0  0  0  0  0  0  0
   -3.2625  -20.2125    0.0000 O   0  0  0  0  0  0  0  0  0  0  0  0
   -3.9750  -20.6250    0.0000 C   0  0  0  0  0  0  0  0  0  0  0  0
   -3.9708  -21.4542    0.0000 C   0  0  0  0  0  0  0  0  0  0  0  0
   -4.6917  -20.2167    0.0000 C   0  0  0  0  0  0  0  0  0  0  0  0
   -5.4000  -20.6292    0.0000 C   0  0  0  0  0  0  0  0  0  0  0  0
   -4.6875  -21.8667    0.0000 C   0  0  0  0  0  0  0  0  0  0  0  0
   -5.4042  -21.4542    0.0000 C   0  0  0  0  0  0  0  0  0  0  0  0
  2  1  1  0
  3  2  1  0
  4  3  1  0
  5  3  2  0
  6  5  1  0
  7  4  2  0
  8  6  2  0
  7  8  1  0
M  END

> <chembl_id>
CHEMBL1213940

> <chembl_pref_name>
None

$$$$

     RDKit          2D

 11 11  0  0  0  0  0  0  0  0999 V2000
    3.6667   -4.6167    0.0000 C   0  0  0  0  0  0  0  0  0  0  0  0
    4.3792   -4.2042    0.0000 C   0  0  0  0  0  0  0  0  0  0  0  0
    4.3875   -3.3792    0.0000 N   0  0  0  0  0  0  0  0  0  0  0  0
    3.6667   -5.4417    0.0000 C   0  0  0  0  0  0  0  0  0  0  0  0
    2.9542   -4.2042    0.0000 C   0  0  0  0  0  0  0  0  0  0  0  0
    5.0917   -4.6250    0.0000 C   0  0  0  0  0  0  0  0  0  0  0  0
    5.8125   -4.2125    0.0000 C   0  0  0  0  0  0  0  0  0  0  0  0
    6.5250   -4.6292    0.0000 C   0  0  0  0  0  0  0  0  0  0  0  0
    2.2417   -4.6167    0.0000 C   0  0  0  0  0  0  0  0  0  0  0  0
    2.9542   -5.8542    0.0000 C   0  0  0  0  0  0  0  0  0  0  0  0
    2.2417   -5.4417    0.0000 C   0  0  0  0  0  0  0  0  0  0  0  0
  2  1  1  0
  3  2  1  0
  4  1  2  0
  5  1  1  0
  6  2  1  0
  7  6  1  0
  8  7  1  0
  9  5  2  0
 10  4  1  0
 11  9  1  0
 10 11  2  0
M  END

> <chembl_id>
CHEMBL22934

> <chembl_pref_name>
None

$$$$

     RDKit          2D

 10 10  0  0  0  0  0  0  0  0999 V2000
    4.9568   -5.4823    0.0000 C   0  0  0  0  0  0  0  0  0  0  0  0
    4.9557   -6.3084    0.0000 C   0  0  0  0  0  0  0  0  0  0  0  0
    5.6693   -6.7206    0.0000 C   0  0  0  0  0  0  0  0  0  0  0  0
    6.3845   -6.3079    0.0000 C   0  0  0  0  0  0  0  0  0  0  0  0
    6.3817   -5.4788    0.0000 C   0  0  0  0  0  0  0  0  0  0  0  0
    5.6675   -5.0703    0.0000 C   0  0  0  0  0  0  0  0  0  0  0  0
    7.0949   -5.0641    0.0000 C   0  0  0  0  0  0  0  0  0  0  0  0
    7.8098   -5.4732    0.0000 O   0  0  0  0  0  0  0  0  0  0  0  0
    7.0918   -4.2404    0.0000 O   0  0  0  0  0  0  0  0  0  0  0  0
    7.0985   -6.7186    0.0000 O   0  0  0  0  0  0  0  0  0  0  0  0
  2  3  1  0
  5  6  2  0
  6  1  1  0
  1  2  2  0
  3  4  2  0
  7  8  1  0
  7  9  2  0
  5  7  1  0
  4  5  1  0
  4 10  1  0
M  END

> <chembl_id>
CHEMBL424

> <chembl_pref_name>
SALICYLIC ACID

$$$$

     RDKit          2D

  9  9  0  0  0  0  0  0  0  0999 V2000
    0.7500   -1.0323    0.0000 N   0  0  0  0  0  0  0  0  0  0  0  0
    1.2135    0.3943    0.0000 N   0  0  0  0  0  0  0  0  0  0  0  0
    1.6281   -2.2462    0.0000 C   0  0  0  0  0  0  0  0  0  0  0  0
   -0.7500   -1.0323    0.0000 C   0  0  0  0  0  0  0  0  0  0  0  0
   -1.2135    0.3943    0.0000 C   0  0  0  0  0  0  0  0  0  0  0  0
    0.0000    1.2760    0.0000 C   0  0  0  0  0  0  0  0  0  0  0  0
    1.1385   -3.3418    0.0000 N   0  0  0  0  0  0  0  0  0  0  0  0
    2.8218   -2.1229    0.0000 N   0  0  0  0  0  0  0  0  0  0  0  0
   -2.3548    0.7651    0.0000 C   0  0  0  0  0  0  0  0  0  0  0  0
  1  2  1  0
  1  3  1  0
  1  4  1  0
  4  5  2  0
  2  6  2  0
  5  6  1  0
  3  7  2  0
  3  8  1  0
  5  9  1  0
M  END

> <chembl_id>
CHEMBL452135

> <chembl_pref_name>
None

$$$$

     RDKit          2D

 10 10  0  0  0  0  0  0  0  0999 V2000
    1.7125   -1.4042    0.0000 N   0  0  0  0  0  0  0  0  0  0  0  0
    1.1917   -1.1042    0.0000 C   0  0  0  0  0  0  0  0  0  0  0  0
    1.7167   -2.0042    0.0000 O   0  0  0  0  0  0  0  0  0  0  0  0
    1.1917   -0.5000    0.0000 C   0  0  0  0  0  0  0  0  0  0  0  0
    2.2292   -1.1000    0.0000 O   0  0  0  0  0  0  0  0  0  0  0  0
    0.6667   -0.2000    0.0000 C   0  0  0  0  0  0  0  0  0  0  0  0
    0.6667    0.4000    0.0000 O   0  0  0  0  0  0  0  0  0  0  0  0
    0.6667   -1.4042    0.0000 C   0  0  0  0  0  0  0  0  0  0  0  0
    0.1542   -1.1042    0.0000 C   0  0  0  0  0  0  0  0  0  0  0  0
    0.1542   -0.5000    0.0000 C   0  0  0  0  0  0  0  0  0  0  0  0
  2  1  1  0
  3  1  1  0
  4  2  1  0
  5  1  2  0
  6  4  2  0
  7  6  1  0
  8  2  2  0
  9  8  1  0
 10  9  2  0
 10  6  1  0
M  CHG  2   1   1   3  -1
M  END

> <chembl_id>
CHEMBL13888

> <chembl_pref_name>
3-NITRO-PHENOL

$$$$

     RDKit          2D

 10 10  0  0  0  0  0  0  0  0999 V2000
   -0.1553    2.0823    0.0000 O   0  0  0  0  0  0  0  0  0  0  0  0
    0.5591    1.6698    0.0000 C   0  0  0  0  0  0  0  0  0  0  0  0
    0.5591    0.8448    0.0000 C   0  0  0  0  0  0  0  0  0  0  0  0
    1.2736    0.4323    0.0000 C   0  0  0  0  0  0  0  0  0  0  0  0
   -0.1553    0.4323    0.0000 C   0  0  0  0  0  0  0  0  0  0  0  0
    1.2736    2.0823    0.0000 C   0  0  0  0  0  0  0  0  0  0  0  0
    1.2736   -0.3927    0.0000 C   0  0  0  0  0  0  0  0  0  0  0  0
   -0.1553   -0.3927    0.0000 C   0  0  0  0  0  0  0  0  0  0  0  0
    0.5591   -0.8052    0.0000 C   0  0  0  0  0  0  0  0  0  0  0  0
    1.2736    2.9073    0.0000 C   0  0  0  0  0  0  0  0  0  0  0  0
  2  1  1  0
  2  3  1  0
  2  6  1  0
  3  4  2  0
  3  5  1  0
  4  7  1  0
  5  8  2  0
  6 10  1  0
  7  9  2  0
  8  9  1  0
M  END

> <chembl_id>
CHEMBL1397202

> <chembl_pref_name>
PHENYLPROPANOL

$$$$

     RDKit          2D

  8  8  0  0  0  0  0  0  0  0999 V2000
    0.5563    0.1066    0.0000 C   0  0  0  0  0  0  0  0  0  0  0  0
    0.5563   -0.7184    0.0000 C   0  0  0  0  0  0  0  0  0  0  0  0
   -0.1582   -1.1309    0.0000 C   0  0  0  0  0  0  0  0  0  0  0  0
   -0.8727   -0.7184    0.0000 C   0  0  0  0  0  0  0  0  0  0  0  0
   -0.8727    0.1066    0.0000 C   0  0  0  0  0  0  0  0  0  0  0  0
   -0.1582    0.5191    0.0000 C   0  0  0  0  0  0  0  0  0  0  0  0
    1.2707    0.5191    0.0000 O   0  0  0  0  0  0  0  0  0  0  0  0
   -0.1582    1.3441    0.0000 Cl  0  0  0  0  0  0  0  0  0  0  0  0
  1  2  2  0
  1  6  1  0
  1  7  1  0
  2  3  1  0
  3  4  2  0
  4  5  1  0
  5  6  2  0
  6  8  1  0
M  END

> <chembl_id>
CHEMBL108877

> <chembl_pref_name>
2-CHLOROPHENOL

$$$$

     RDKit          2D

 11 11  0  0  0  0  0  0  0  0999 V2000
   28.4971  -20.6072    0.0000 C   0  0  0  0  0  0  0  0  0  0  0  0
   28.4960  -21.4268    0.0000 C   0  0  0  0  0  0  0  0  0  0  0  0
   29.2040  -21.8357    0.0000 C   0  0  0  0  0  0  0  0  0  0  0  0
   29.9137  -21.4263    0.0000 C   0  0  0  0  0  0  0  0  0  0  0  0
   29.9108  -20.6036    0.0000 C   0  0  0  0  0  0  0  0  0  0  0  0
   29.2022  -20.1984    0.0000 C   0  0  0  0  0  0  0  0  0  0  0  0
   29.1998  -19.3812    0.0000 C   0  0  0  0  0  0  0  0  0  0  0  0
   29.9063  -18.9705    0.0000 C   0  0  0  0  0  0  0  0  0  0  0  0
   29.9038  -18.1533    0.0000 C   0  0  0  0  0  0  0  0  0  0  0  0
   30.6103  -17.7426    0.0000 N   0  0  0  0  0  0  0  0  0  0  0  0
   29.1949  -17.7468    0.0000 O   0  0  0  0  0  0  0  0  0  0  0  0
  1  2  2  0
  2  3  1  0
  3  4  2  0
  4  5  1  0
  5  6  2  0
  6  1  1  0
  6  7  1  0
  7  8  1  0
  8  9  1  0
  9 10  1  0
  9 11  2  0
M  END

> <chembl_id>
CHEMBL3244842

> <chembl_pref_name>
None

$$$$

     RDKit          2D

 10 10  0  0  0  0  0  0  0  0999 V2000
   -3.4926   -0.2880    0.0000 C   0  0  0  0  0  0  0  0  0  0  0  0
   -2.6272   -0.7890    0.0000 O   0  0  0  0  0  0  0  0  0  0  0  0
   -1.7606   -0.2900    0.0000 C   0  0  0  0  0  0  0  0  0  0  0  0
   -1.7594    0.7100    0.0000 O   0  0  0  0  0  0  0  0  0  0  0  0
   -0.8954   -0.7910    0.0000 C   0  0  0  0  0  0  0  0  0  0  0  0
   -0.0288   -0.2920    0.0000 C   0  0  0  0  0  0  0  0  0  0  0  0
    0.8844   -0.6998    0.0000 C   0  0  0  0  0  0  0  0  0  0  0  0
    1.5542    0.0426    0.0000 C   0  0  0  0  0  0  0  0  0  0  0  0
    1.0552    0.9092    0.0000 O   0  0  0  0  0  0  0  0  0  0  0  0
    0.0770    0.7024    0.0000 C   0  0  0  0  0  0  0  0  0  0  0  0
  1  2  1  0
  2  3  1  0
  3  4  2  0
  3  5  1  0
  5  6  1  0
  6  7  1  0
  7  8  2  0
  8  9  1  0
  9 10  1  0
 10  6  2  0
M  END

> <chembl_id>
CHEMBL4520935

> <chembl_pref_name>
None

$$$$

     RDKit          2D

 11 12  0  0  0  0  0  0  0  0999 V2000
    9.8092  -10.6151    0.0000 C   0  0  0  0  0  0  0  0  0  0  0  0
   10.5251  -11.0276    0.0000 C   0  0  0  0  0  0  0  0  0  0  0  0
    9.8092  -11.4401    0.0000 C   0  0  0  0  0  0  0  0  0  0  0  0
    8.9991  -10.4730    0.0000 N   0  0  0  0  0  0  0  0  0  0  0  0
   11.3501  -11.0276    0.0000 C   0  0  0  0  0  0  0  0  0  0  0  0
   11.7625  -10.3158    0.0000 C   0  0  0  0  0  0  0  0  0  0  0  0
   12.5875  -10.3158    0.0000 C   0  0  0  0  0  0  0  0  0  0  0  0
   13.0000  -11.0276    0.0000 C   0  0  0  0  0  0  0  0  0  0  0  0
   12.5875  -11.7434    0.0000 C   0  0  0  0  0  0  0  0  0  0  0  0
   11.7625  -11.7434    0.0000 C   0  0  0  0  0  0  0  0  0  0  0  0
   10.0950   -9.8404    0.0000 C   0  0  0  0  0  0  0  0  0  0  0  0
  1  2  1  0
  2  3  1  0
  1  3  1  0
  1  4  1  1
  5  6  1  0
  6  7  2  0
  7  8  1  0
  8  9  2  0
  9 10  1  0
  5 10  2  0
  2  5  1  6
  1 11  1  0
M  END

> <chembl_id>
CHEMBL3545671

> <chembl_pref_name>
None

$$$$

     RDKit          2D

  9  9  0  0  0  0  0  0  0  0999 V2000
    5.6796   -3.1820    0.0000 C   0  0  0  0  0  0  0  0  0  0  0  0
    6.1042   -3.8896    0.0000 N   0  0  0  0  0  0  0  0  0  0  0  0
    6.9275   -3.8748    0.0000 C   0  0  0  0  0  0  0  0  0  0  0  0
    7.3272   -3.1531    0.0000 C   0  0  0  0  0  0  0  0  0  0  0  0
    6.8976   -2.4447    0.0000 C   0  0  0  0  0  0  0  0  0  0  0  0
    6.0757   -2.4631    0.0000 C   0  0  0  0  0  0  0  0  0  0  0  0
    7.3538   -4.5836    0.0000 F   0  0  0  0  0  0  0  0  0  0  0  0
    4.8528   -3.1972    0.0000 N   0  0  0  0  0  0  0  0  0  0  0  0
    4.4261   -2.4886    0.0000 N   0  0  0  0  0  0  0  0  0  0  0  0
  4  5  1  0
  2  3  1  0
  5  6  2  0
  6  1  1  0
  1  2  2  0
  3  7  1  0
  3  4  2  0
  1  8  1  0
  8  9  1  0
M  END

> <chembl_id>
CHEMBL1650239

> <chembl_pref_name>
None

$$$$

     RDKit          2D

 10 10  0  0  0  0  0  0  0  0999 V2000
   10.9747  -11.4299    0.0000 C   0  0  0  0  0  0  0  0  0  0  0  0
   10.9735  -12.2567    0.0000 C   0  0  0  0  0  0  0  0  0  0  0  0
   11.6879  -12.6693    0.0000 C   0  0  0  0  0  0  0  0  0  0  0  0
   12.4038  -12.2563    0.0000 C   0  0  0  0  0  0  0  0  0  0  0  0
   12.4009  -11.4263    0.0000 C   0  0  0  0  0  0  0  0  0  0  0  0
   11.6860  -11.0174    0.0000 C   0  0  0  0  0  0  0  0  0  0  0  0
   11.6835  -10.1930    0.0000 C   0  0  0  0  0  0  0  0  0  0  0  0
   11.6877  -13.4938    0.0000 O   0  0  0  0  0  0  0  0  0  0  0  0
   13.1185  -12.6674    0.0000 N   0  0  0  0  0  0  0  0  0  0  0  0
   12.3963   -9.7785    0.0000 O   0  0  0  0  0  0  0  0  0  0  0  0
  1  2  2  0
  2  3  1  0
  3  4  2  0
  4  5  1  0
  5  6  2  0
  6  1  1  0
  6  7  1  0
  3  8  1  0
  4  9  1  0
  7 10  1  0
M  END

> <chembl_id>
CHEMBL2205127

> <chembl_pref_name>
None

$$$$

     RDKit          2D

 11 12  0  0  0  0  0  0  0  0999 V2000
    9.5554   -7.9618    0.0000 C   0  0  0  0  0  0  0  0  0  0  0  0
    9.5541   -8.7888    0.0000 C   0  0  0  0  0  0  0  0  0  0  0  0
   10.2686   -9.2013    0.0000 C   0  0  0  0  0  0  0  0  0  0  0  0
   10.9845   -8.7882    0.0000 C   0  0  0  0  0  0  0  0  0  0  0  0
   10.9817   -7.9582    0.0000 C   0  0  0  0  0  0  0  0  0  0  0  0
   10.2668   -7.5494    0.0000 C   0  0  0  0  0  0  0  0  0  0  0  0
   11.6942   -7.5433    0.0000 O   0  0  0  0  0  0  0  0  0  0  0  0
   12.4098   -7.9528    0.0000 C   0  0  0  0  0  0  0  0  0  0  0  0
   12.8277   -8.6628    0.0000 C   0  0  0  0  0  0  0  0  0  0  0  0
   13.2372   -7.9473    0.0000 C   0  0  0  0  0  0  0  0  0  0  0  0
   13.9491   -7.5313    0.0000 N   0  0  0  0  0  0  0  0  0  0  0  0
  1  2  2  0
  2  3  1  0
  3  4  2  0
  4  5  1  0
  5  6  2  0
  6  1  1  0
  5  7  1  0
  8  7  1  6
  9  8  1  0
 10  9  1  0
  8 10  1  0
 10 11  1  6
M  END

> <chembl_id>
CHEMBL3330326

> <chembl_pref_name>
None

$$$$

     RDKit          2D

  9  9  0  0  0  0  0  0  0  0999 V2000
    2.6648   -6.8099    0.0000 C   0  0  0  0  0  0  0  0  0  0  0  0
    2.6636   -7.6294    0.0000 C   0  0  0  0  0  0  0  0  0  0  0  0
    3.3717   -8.0384    0.0000 C   0  0  0  0  0  0  0  0  0  0  0  0
    4.0813   -7.6290    0.0000 N   0  0  0  0  0  0  0  0  0  0  0  0
    4.0785   -6.8063    0.0000 C   0  0  0  0  0  0  0  0  0  0  0  0
    3.3699   -6.4010    0.0000 C   0  0  0  0  0  0  0  0  0  0  0  0
    3.3715   -8.8556    0.0000 S   0  0  0  0  0  0  0  0  0  0  0  0
    4.7897   -8.0364    0.0000 O   0  0  0  0  0  0  0  0  0  0  0  0
    3.3674   -5.5838    0.0000 C   0  0  0  0  0  0  0  0  0  0  0  0
  1  2  2  0
  2  3  1  0
  3  4  1  0
  4  5  1  0
  5  6  2  0
  6  1  1  0
  3  7  2  0
  4  8  1  0
  6  9  1  0
M  END

> <chembl_id>
CHEMBL3326431

> <chembl_pref_name>
None

$$$$

     RDKit          2D

 10 10  0  0  0  0  0  0  0  0999 V2000
    1.7073   -2.5754    0.0000 C   0  0  0  0  0  0  0  0  0  0  0  0
    1.7061   -3.3949    0.0000 C   0  0  0  0  0  0  0  0  0  0  0  0
    2.4142   -3.8039    0.0000 C   0  0  0  0  0  0  0  0  0  0  0  0
    3.1238   -3.3944    0.0000 C   0  0  0  0  0  0  0  0  0  0  0  0
    3.1210   -2.5718    0.0000 C   0  0  0  0  0  0  0  0  0  0  0  0
    2.4124   -2.1665    0.0000 C   0  0  0  0  0  0  0  0  0  0  0  0
    2.4099   -1.3493    0.0000 O   0  0  0  0  0  0  0  0  0  0  0  0
    3.8272   -2.1605    0.0000 F   0  0  0  0  0  0  0  0  0  0  0  0
    3.8322   -3.8019    0.0000 C   0  0  0  0  0  0  0  0  0  0  0  0
    3.8334   -4.6191    0.0000 O   0  0  0  0  0  0  0  0  0  0  0  0
  1  2  2  0
  2  3  1  0
  3  4  2  0
  4  5  1  0
  5  6  2  0
  6  1  1  0
  6  7  1  0
  5  8  1  0
  4  9  1  0
  9 10  2  0
M  END

> <chembl_id>
CHEMBL3298207

> <chembl_pref_name>
None

$$$$

     RDKit          2D

  9  9  0  0  0  0  0  0  0  0999 V2000
    5.1992    0.1809    0.0000 N   0  0  0  0  0  0  0  0  0  0  0  0
    4.5318    0.6659    0.0000 C   0  0  0  0  0  0  0  0  0  0  0  0
    3.8644    0.1809    0.0000 C   0  0  0  0  0  0  0  0  0  0  0  0
    4.1193   -0.6037    0.0000 C   0  0  0  0  0  0  0  0  0  0  0  0
    4.9443   -0.6037    0.0000 C   0  0  0  0  0  0  0  0  0  0  0  0
    4.5318    1.4909    0.0000 C   0  0  0  0  0  0  0  0  0  0  0  0
    5.2463    1.9034    0.0000 O   0  0  0  0  0  0  0  0  0  0  0  0
    3.8173    1.9034    0.0000 O   0  0  0  0  0  0  0  0  0  0  0  0
    3.6344   -1.2711    0.0000 Cl  0  0  0  0  0  0  0  0  0  0  0  0
  4  5  2  0
  5  1  1  0
  2  3  2  0
  2  6  1  0
  6  7  1  0
  1  2  1  0
  6  8  2  0
  3  4  1  0
  4  9  1  0
M  END

> <chembl_id>
CHEMBL1171074

> <chembl_pref_name>
None

$$$$

     RDKit          2D

  8  8  0  0  0  0  0  0  0  0999 V2000
   -1.2328   -1.8646    0.0000 O   0  0  0  0  0  0  0  0  0  0  0  0
   -0.3664   -1.3654    0.0000 C   0  0  0  0  0  0  0  0  0  0  0  0
   -0.3656   -0.3654    0.0000 N   0  0  0  0  0  0  0  0  0  0  0  0
    0.5008    0.1340    0.0000 C   0  0  0  0  0  0  0  0  0  0  0  0
    1.3664   -0.3666    0.0000 C   0  0  0  0  0  0  0  0  0  0  0  0
    2.2328    0.1326    0.0000 F   0  0  0  0  0  0  0  0  0  0  0  0
    1.3656   -1.3666    0.0000 C   0  0  0  0  0  0  0  0  0  0  0  0
    0.4992   -1.8660    0.0000 N   0  0  0  0  0  0  0  0  0  0  0  0
  1  2  1  0
  2  3  2  0
  3  4  1  0
  4  5  2  0
  5  6  1  0
  5  7  1  0
  7  8  2  0
  8  2  1  0
M  END

> <chembl_id>
CHEMBL4303165

> <chembl_pref_name>
None

$$$$

     RDKit          2D

 10 11  0  0  0  0  0  0  0  0999 V2000
    1.7667    0.2708    0.0000 C   0  0  0  0  0  0  0  0  0  0  0  0
    1.7667    1.0958    0.0000 C   0  0  0  0  0  0  0  0  0  0  0  0
    2.5542    0.0208    0.0000 C   0  0  0  0  0  0  0  0  0  0  0  0
    2.5542    1.3583    0.0000 C   0  0  0  0  0  0  0  0  0  0  0  0
    3.0417    0.6833    0.0000 C   0  0  0  0  0  0  0  0  0  0  0  0
    2.8167   -0.7667    0.0000 N   0  0  0  0  0  0  0  0  0  0  0  0
    1.0542   -0.1417    0.0000 C   0  0  0  0  0  0  0  0  0  0  0  0
    1.0542    1.5083    0.0000 C   0  0  0  0  0  0  0  0  0  0  0  0
    0.3417    0.2708    0.0000 C   0  0  0  0  0  0  0  0  0  0  0  0
    0.3417    1.0958    0.0000 C   0  0  0  0  0  0  0  0  0  0  0  0
  2  1  1  0
  3  1  1  0
  4  2  1  0
  5  3  1  0
  6  3  1  0
  7  1  2  0
  8  2  2  0
  9  7  1  0
 10  9  2  0
  4  5  1  0
 10  8  1  0
M  END

> <chembl_id>
CHEMBL158574

> <chembl_pref_name>
None

$$$$
 
     RDKit          2D

 11 12  0  0  0  0  0  0  0  0999 V2000
    1.1501  -14.5732    0.0000 C   0  0  0  0  0  0  0  0  0  0  0  0
    1.1489  -15.3927    0.0000 C   0  0  0  0  0  0  0  0  0  0  0  0
    1.8570  -15.8017    0.0000 C   0  0  0  0  0  0  0  0  0  0  0  0
    2.5666  -15.3923    0.0000 C   0  0  0  0  0  0  0  0  0  0  0  0
    2.5638  -14.5696    0.0000 C   0  0  0  0  0  0  0  0  0  0  0  0
    1.8552  -14.1643    0.0000 C   0  0  0  0  0  0  0  0  0  0  0  0
    3.2700  -14.1583    0.0000 N   0  0  0  0  0  0  0  0  0  0  0  0
    4.0174  -14.4854    0.0000 C   0  0  0  0  0  0  0  0  0  0  0  0
    4.5619  -13.8760    0.0000 C   0  0  0  0  0  0  0  0  0  0  0  0
    4.1506  -13.1698    0.0000 C   0  0  0  0  0  0  0  0  0  0  0  0
    3.3520  -13.3429    0.0000 C   0  0  0  0  0  0  0  0  0  0  0  0
  1  2  2  0
  2  3  1  0
  3  4  2  0
  4  5  1  0
  5  6  2  0
  6  1  1  0
  5  7  1  0
  7  8  1  0
  8  9  1  0
  9 10  1  0
 10 11  1  0
 11  7  1  0
M  END

> <chembl_id>
CHEMBL4469084

> <chembl_pref_name>
None

$$$$

     RDKit          2D

 11 12  0  0  0  0  0  0  0  0999 V2000
   11.9088   -8.4980    0.0000 O   0  0  0  0  0  0  0  0  0  0  0  0
   11.9088   -9.3236    0.0000 C   0  0  0  0  0  0  0  0  0  0  0  0
   12.6214   -9.7322    0.0000 C   0  0  0  0  0  0  0  0  0  0  0  0
   12.6214   -8.0810    0.0000 C   0  0  0  0  0  0  0  0  0  0  0  0
   13.3339   -8.4980    0.0000 C   0  0  0  0  0  0  0  0  0  0  0  0
   13.3304   -9.3236    0.0000 C   0  0  0  0  0  0  0  0  0  0  0  0
   14.0397   -9.7371    0.0000 C   0  0  0  0  0  0  0  0  0  0  0  0
   14.7571   -9.3296    0.0000 C   0  0  0  0  0  0  0  0  0  0  0  0
   14.7606   -8.5040    0.0000 C   0  0  0  0  0  0  0  0  0  0  0  0
   14.0467   -8.0859    0.0000 C   0  0  0  0  0  0  0  0  0  0  0  0
   11.1944   -9.7374    0.0000 O   0  0  0  0  0  0  0  0  0  0  0  0
  1  2  1  0
  1  4  1  0
  2  3  1  0
  3  6  1  0
  5  4  1  0
  5 10  1  0
  6  7  1  0
  7  8  2  0
  8  9  1  0
  9 10  2  0
  5  6  2  0
  2 11  2  0
M  END

> <chembl_id>
CHEMBL447815

> <chembl_pref_name>
None

$$$$

     RDKit          2D

  7  7  0  0  0  0  0  0  0  0999 V2000
   -0.4345    1.8989    0.0000 C   0  0  0  0  0  0  0  0  0  0  0  0
   -0.4356    1.0721    0.0000 C   0  0  0  0  0  0  0  0  0  0  0  0
    0.2787    0.6594    0.0000 N   0  0  0  0  0  0  0  0  0  0  0  0
    0.9947    1.0725    0.0000 C   0  0  0  0  0  0  0  0  0  0  0  0
    0.9919    1.9026    0.0000 C   0  0  0  0  0  0  0  0  0  0  0  0
    0.2769    2.3114    0.0000 C   0  0  0  0  0  0  0  0  0  0  0  0
    1.7095    0.6614    0.0000 Cl  0  0  0  0  0  0  0  0  0  0  0  0
  3  4  2  0
  4  5  1  0
  2  3  1  0
  5  6  2  0
  6  1  1  0
  1  2  2  0
  4  7  1  0
M  END

> <chembl_id>
CHEMBL509579

> <chembl_pref_name>
2-CHLOROPYRIDINE

$$$$

     RDKit          2D

  5  5  0  0  0  0  0  0  0  0999 V2000
    0.0006   -0.6350    0.0000 N   0  0  0  0  0  0  0  0  0  0  0  0
   -0.6674   -0.1509    0.0000 N   0  0  0  0  0  0  0  0  0  0  0  0
   -0.4134    0.6341    0.0000 N   0  0  0  0  0  0  0  0  0  0  0  0
    0.4116    0.6350    0.0000 C   0  0  0  0  0  0  0  0  0  0  0  0
    0.6674   -0.1493    0.0000 C   0  0  0  0  0  0  0  0  0  0  0  0
  1  2  1  0
  2  3  2  0
  3  4  1  0
  4  5  2  0
  1  5  1  0
M  END

> <chembl_id>
CHEMBL2148102

> <chembl_pref_name>
None

$$$$

     RDKit          2D

 10 10  0  0  0  0  0  0  0  0999 V2000
   14.8458  -18.5985    0.0000 C   0  0  0  0  0  0  0  0  0  0  0  0
   14.1365  -18.1771    0.0000 C   0  0  0  0  0  0  0  0  0  0  0  0
   15.5651  -18.1945    0.0000 O   0  0  0  0  0  0  0  0  0  0  0  0
   14.8357  -19.4236    0.0000 C   0  0  0  0  0  0  0  0  0  0  0  0
   15.5450  -19.8448    0.0000 C   0  0  0  0  0  0  0  0  0  0  0  0
   15.5350  -20.6701    0.0000 C   0  0  0  0  0  0  0  0  0  0  0  0
   14.8157  -21.0741    0.0000 C   0  0  0  0  0  0  0  0  0  0  0  0
   14.1064  -20.6527    0.0000 C   0  0  0  0  0  0  0  0  0  0  0  0
   14.1164  -19.8276    0.0000 C   0  0  0  0  0  0  0  0  0  0  0  0
   16.2448  -21.0913    0.0000 O   0  0  0  0  0  0  0  0  0  0  0  0
  1  2  1  0
  4  5  1  0
  5  6  2  0
  6  7  1  0
  7  8  2  0
  8  9  1  0
  4  9  2  0
  1  3  2  0
  1  4  1  0
  6 10  1  0
M  END

> <chembl_id>
CHEMBL404719

> <chembl_pref_name>
None

$$$$

     RDKit          2D

 10 10  0  0  0  0  0  0  0  0999 V2000
    2.6669   -0.4262    0.0000 O   0  0  0  0  0  0  0  0  0  0  0  0
    1.4376   -2.6320    0.0000 O   0  0  0  0  0  0  0  0  0  0  0  0
    1.5870   -1.2109    0.0000 C   0  0  0  0  0  0  0  0  0  0  0  0
    2.4120   -1.2109    0.0000 C   0  0  0  0  0  0  0  0  0  0  0  0
    1.9995    0.0587    0.0000 C   0  0  0  0  0  0  0  0  0  0  0  0
    1.3321   -0.4262    0.0000 C   0  0  0  0  0  0  0  0  0  0  0  0
    1.1021   -1.8783    0.0000 C   0  0  0  0  0  0  0  0  0  0  0  0
    2.8969   -1.8783    0.0000 C   0  0  0  0  0  0  0  0  0  0  0  0
    1.9995    0.8837    0.0000 C   0  0  0  0  0  0  0  0  0  0  0  0
    0.2816   -1.7921    0.0000 C   0  0  0  0  0  0  0  0  0  0  0  0
  1  4  1  0
  1  5  1  0
  2  7  2  0
  3  4  2  0
  3  6  1  0
  3  7  1  0
  4  8  1  0
  5  6  2  0
  5  9  1  0
  7 10  1  0
M  END

> <chembl_id>
CHEMBL1894194

> <chembl_pref_name>
None

$$$$

     RDKit          2D

 11 11  0  0  0  0  0  0  0  0999 V2000
    6.3523   -2.9081    0.0000 C   0  0  0  0  0  0  0  0  0  0  0  0
    6.3512   -3.7354    0.0000 C   0  0  0  0  0  0  0  0  0  0  0  0
    7.0659   -4.1483    0.0000 C   0  0  0  0  0  0  0  0  0  0  0  0
    7.7824   -3.7349    0.0000 C   0  0  0  0  0  0  0  0  0  0  0  0
    7.7794   -2.9045    0.0000 C   0  0  0  0  0  0  0  0  0  0  0  0
    7.0641   -2.4954    0.0000 C   0  0  0  0  0  0  0  0  0  0  0  0
    8.4923   -2.4893    0.0000 C   0  0  0  0  0  0  0  0  0  0  0  0
    9.2083   -2.8991    0.0000 C   0  0  0  0  0  0  0  0  0  0  0  0
    9.9212   -2.4840    0.0000 N   0  0  0  0  0  0  0  0  0  0  0  0
   10.6327   -2.0665    0.0000 N   0  0  0  0  0  0  0  0  0  0  0  0
   11.3451   -1.6499    0.0000 N   0  0  0  0  0  0  0  0  0  0  0  0
  1  2  2  0
  2  3  1  0
  3  4  2  0
  4  5  1  0
  5  6  2  0
  6  1  1  0
  5  7  1  0
  7  8  1  0
  8  9  1  0
  9 10  2  0
 10 11  2  0
M  CHG  2  10   1  11  -1
M  END

> <chembl_id>
CHEMBL3236136

> <chembl_pref_name>
None

$$$$

     RDKit          2D

 11 12  0  0  0  0  0  0  0  0999 V2000
   -1.8693   -0.4266    0.0000 N   0  0  0  0  0  0  0  0  0  0  0  0
   -1.8732    0.3984    0.0000 N   0  0  0  0  0  0  0  0  0  0  0  0
   -1.0899    0.6572    0.0000 N   0  0  0  0  0  0  0  0  0  0  0  0
   -0.6017   -0.0079    0.0000 C   0  0  0  0  0  0  0  0  0  0  0  0
   -1.0834   -0.6777    0.0000 C   0  0  0  0  0  0  0  0  0  0  0  0
    0.2233   -0.0040    0.0000 C   0  0  0  0  0  0  0  0  0  0  0  0
    0.6323    0.7125    0.0000 C   0  0  0  0  0  0  0  0  0  0  0  0
    1.4573    0.7164    0.0000 C   0  0  0  0  0  0  0  0  0  0  0  0
    1.8732    0.0040    0.0000 C   0  0  0  0  0  0  0  0  0  0  0  0
    1.4642   -0.7125    0.0000 C   0  0  0  0  0  0  0  0  0  0  0  0
    0.6392   -0.7164    0.0000 C   0  0  0  0  0  0  0  0  0  0  0  0
  1  2  1  0
  2  3  2  0
  3  4  1  0
  4  5  2  0
  1  5  1  0
  6  7  2  0
  7  8  1  0
  8  9  1  0
  9 10  1  0
 10 11  1  0
  6 11  1  0
  4  6  1  0
M  END

> <chembl_id>
CHEMBL2148099

> <chembl_pref_name>
None

$$$$

     RDKit          2D

  9  9  0  0  0  0  0  0  0  0999 V2000
    2.6041  -16.4915    0.0000 C   0  0  0  0  0  0  0  0  0  0  0  0
    2.6041  -17.3165    0.0000 C   0  0  0  0  0  0  0  0  0  0  0  0
    3.3162  -17.7248    0.0000 C   0  0  0  0  0  0  0  0  0  0  0  0
    4.0282  -17.3165    0.0000 C   0  0  0  0  0  0  0  0  0  0  0  0
    4.0282  -16.4915    0.0000 C   0  0  0  0  0  0  0  0  0  0  0  0
    3.3162  -16.0748    0.0000 N   0  0  0  0  0  0  0  0  0  0  0  0
    4.7439  -16.0811    0.0000 O   0  0  0  0  0  0  0  0  0  0  0  0
    1.8885  -16.0811    0.0000 O   0  0  0  0  0  0  0  0  0  0  0  0
    3.3162  -18.5498    0.0000 C   0  0  0  0  0  0  0  0  0  0  0  0
  1  2  1  0
  1  6  1  0
  2  3  2  0
  3  4  1  0
  4  5  2  0
  5  6  1  0
  5  7  1  0
  1  8  2  0
  3  9  1  0
M  END

> <chembl_id>
CHEMBL3086519

> <chembl_pref_name>
None

$$$$

     RDKit          2D

  7  7  0  0  0  0  0  0  0  0999 V2000
    2.1167   -3.2042    0.0000 N   0  0  0  0  0  0  0  0  0  0  0  0
    2.1042   -2.6042    0.0000 C   0  0  0  0  0  0  0  0  0  0  0  0
    1.1917   -2.9292    0.0000 N   0  0  0  0  0  0  0  0  0  0  0  0
    1.5542   -3.4125    0.0000 C   0  0  0  0  0  0  0  0  0  0  0  0
    1.5292   -2.4375    0.0000 C   0  0  0  0  0  0  0  0  0  0  0  0
    3.1375   -2.4667    0.0000 N   0  0  0  0  0  0  0  0  0  0  0  0
    2.5792   -2.2417    0.0000 C   0  0  0  0  0  0  0  0  0  0  0  0
  2  1  1  0
  3  4  1  0
  4  1  2  0
  5  2  2  0
  6  7  1  0
  7  2  1  0
  3  5  1  0
M  END

> <chembl_id>
CHEMBL92694

> <chembl_pref_name>
None

$$$$

     RDKit          2D

  9  9  0  0  0  0  0  0  0  0999 V2000
    4.9292   -4.3792    0.0000 N   0  0  0  0  0  0  0  0  0  0  0  0
    4.9292   -6.0292    0.0000 N   0  0  0  0  0  0  0  0  0  0  0  0
    5.6417   -4.7917    0.0000 C   0  0  0  0  0  0  0  0  0  0  0  0
    4.2167   -4.7917    0.0000 C   0  0  0  0  0  0  0  0  0  0  0  0
    5.6417   -5.6167    0.0000 C   0  0  0  0  0  0  0  0  0  0  0  0
    6.3542   -4.3792    0.0000 O   0  0  0  0  0  0  0  0  0  0  0  0
    4.2167   -5.6167    0.0000 C   0  0  0  0  0  0  0  0  0  0  0  0
    3.5042   -4.3792    0.0000 C   0  0  0  0  0  0  0  0  0  0  0  0
    7.0667   -4.7917    0.0000 C   0  0  0  0  0  0  0  0  0  0  0  0
  2  7  1  0
  3  1  2  0
  4  1  1  0
  5  3  1  0
  6  3  1  0
  7  4  2  0
  8  4  1  0
  9  6  1  0
  2  5  2  0
M  END

> <chembl_id>
CHEMBL93500

> <chembl_pref_name>
None

$$$$

     RDKit          2D

  9  9  0  0  0  0  0  0  0  0999 V2000
    1.6849   -9.4344    0.0000 N   0  0  0  0  0  0  0  0  0  0  0  0
    2.3573   -8.9564    0.0000 C   0  0  0  0  0  0  0  0  0  0  0  0
    2.1123   -8.1685    0.0000 N   0  0  0  0  0  0  0  0  0  0  0  0
    1.2848   -8.1596    0.0000 C   0  0  0  0  0  0  0  0  0  0  0  0
    1.0247   -8.9416    0.0000 C   0  0  0  0  0  0  0  0  0  0  0  0
    3.0700   -9.3771    0.0000 C   0  0  0  0  0  0  0  0  0  0  0  0
    3.7880   -8.9709    0.0000 C   0  0  0  0  0  0  0  0  0  0  0  0
    4.5014   -9.3880    0.0000 O   0  0  0  0  0  0  0  0  0  0  0  0
    3.7978   -8.1443    0.0000 O   0  0  0  0  0  0  0  0  0  0  0  0
  4  5  2  0
  5  1  1  0
  1  2  1  0
  2  6  1  0
  6  7  1  0
  2  3  2  0
  3  4  1  0
  7  8  1  0
  7  9  2  0
M  END

> <chembl_id>
CHEMBL1789635

> <chembl_pref_name>
IMIDAZOLEACETIC ACID

$$$$

     RDKit          2D

 11 12  0  0  0  0  0  0  0  0999 V2000
   12.7932   -7.3425    0.0000 C   0  0  0  0  0  0  0  0  0  0  0  0
   12.3807   -8.0570    0.0000 C   0  0  0  0  0  0  0  0  0  0  0  0
   11.5557   -8.0570    0.0000 C   0  0  0  0  0  0  0  0  0  0  0  0
   11.1432   -7.3425    0.0000 C   0  0  0  0  0  0  0  0  0  0  0  0
   11.5557   -6.6280    0.0000 C   0  0  0  0  0  0  0  0  0  0  0  0
   12.3807   -6.6280    0.0000 C   0  0  0  0  0  0  0  0  0  0  0  0
   13.6182   -7.3425    0.0000 C   0  0  0  0  0  0  0  0  0  0  0  0
   14.1031   -6.6751    0.0000 C   0  0  0  0  0  0  0  0  0  0  0  0
   14.8877   -6.9300    0.0000 C   0  0  0  0  0  0  0  0  0  0  0  0
   14.8877   -7.7550    0.0000 C   0  0  0  0  0  0  0  0  0  0  0  0
   14.1031   -8.0099    0.0000 C   0  0  0  0  0  0  0  0  0  0  0  0
  1  2  1  0
  2  3  2  0
  3  4  1  0
  4  5  2  0
  5  6  1  0
  1  6  2  0
  7  8  1  0
  8  9  1  0
  9 10  1  0
 10 11  1  0
  7 11  1  0
  1  7  1  0
M  END

> <chembl_id>
CHEMBL3278513

> <chembl_pref_name>
None

$$$$

     RDKit          2D

 10 10  0  0  0  0  0  0  0  0999 V2000
   13.8902    2.0500    0.0000 C   0  0  0  0  0  0  0  0  0  0  0  0
   13.8891    1.2227    0.0000 C   0  0  0  0  0  0  0  0  0  0  0  0
   14.6039    0.8098    0.0000 C   0  0  0  0  0  0  0  0  0  0  0  0
   15.3203    1.2231    0.0000 C   0  0  0  0  0  0  0  0  0  0  0  0
   15.3175    2.0537    0.0000 C   0  0  0  0  0  0  0  0  0  0  0  0
   14.6021    2.4628    0.0000 C   0  0  0  0  0  0  0  0  0  0  0  0
   14.5996    3.2878    0.0000 C   0  0  0  0  0  0  0  0  0  0  0  0
   16.0304    2.4689    0.0000 C   0  0  0  0  0  0  0  0  0  0  0  0
   13.1743    0.8107    0.0000 C   0  0  0  0  0  0  0  0  0  0  0  0
   14.6037   -0.0152    0.0000 C   0  0  0  0  0  0  0  0  0  0  0  0
  2  3  1  0
  5  6  2  0
  6  1  1  0
  1  2  2  0
  6  7  1  0
  3  4  2  0
  5  8  1  0
  2  9  1  0
  4  5  1  0
  3 10  1  0
M  END

> <chembl_id>
CHEMBL1797134

> <chembl_pref_name>
None

$$$$

     RDKit          2D

 10 10  0  0  0  0  0  0  0  0999 V2000
    8.6512  -20.9177    0.0000 N   0  0  0  0  0  0  0  0  0  0  0  0
    9.4762  -20.9177    0.0000 C   0  0  0  0  0  0  0  0  0  0  0  0
    9.8864  -20.2029    0.0000 C   0  0  0  0  0  0  0  0  0  0  0  0
    9.4762  -19.4881    0.0000 C   0  0  0  0  0  0  0  0  0  0  0  0
   10.7115  -20.2029    0.0000 C   0  0  0  0  0  0  0  0  0  0  0  0
   11.1264  -19.4881    0.0000 C   0  0  0  0  0  0  0  0  0  0  0  0
   11.9514  -19.4881    0.0000 C   0  0  0  0  0  0  0  0  0  0  0  0
   12.3617  -20.2029    0.0000 C   0  0  0  0  0  0  0  0  0  0  0  0
   11.9514  -20.9177    0.0000 C   0  0  0  0  0  0  0  0  0  0  0  0
   11.1264  -20.9177    0.0000 C   0  0  0  0  0  0  0  0  0  0  0  0
  2  3  1  0
  3  4  1  1
  1  2  1  0
  5  6  1  0
  6  7  2  0
  7  8  1  0
  8  9  2  0
  9 10  1  0
  5 10  2  0
  3  5  1  0
M  END

> <chembl_id>
CHEMBL448232

> <chembl_pref_name>
None

$$$$

     RDKit          2D

 10 10  0  0  0  0  0  0  0  0999 V2000
    2.3917   -3.0292    0.0000 N   0  0  0  0  0  0  0  0  0  0  0  0
    2.0917   -2.5042    0.0000 N   0  0  0  0  0  0  0  0  0  0  0  0
    2.9917   -3.0292    0.0000 N   0  0  0  0  0  0  0  0  0  0  0  0
    1.4917   -2.5042    0.0000 C   0  0  0  0  0  0  0  0  0  0  0  0
    3.2917   -3.5417    0.0000 C   0  0  0  0  0  0  0  0  0  0  0  0
    1.1917   -3.0292    0.0000 C   0  0  0  0  0  0  0  0  0  0  0  0
    1.1917   -1.9875    0.0000 C   0  0  0  0  0  0  0  0  0  0  0  0
    0.5917   -1.9875    0.0000 C   0  0  0  0  0  0  0  0  0  0  0  0
    0.5917   -3.0292    0.0000 C   0  0  0  0  0  0  0  0  0  0  0  0
    0.2917   -2.5167    0.0000 C   0  0  0  0  0  0  0  0  0  0  0  0
  2  1  1  0
  3  1  2  0
  4  2  1  0
  5  3  1  0
  6  4  2  0
  7  4  1  0
  8  7  2  0
  9  6  1  0
 10  8  1  0
 10  9  2  0
M  END

> <chembl_id>
CHEMBL121569

> <chembl_pref_name>
None

$$$$

     RDKit          2D

  9  9  0  0  0  0  0  0  0  0999 V2000
    7.2167  -16.4542    0.0000 C   0  0  0  0  0  0  0  0  0  0  0  0
    7.2167  -17.2792    0.0000 C   0  0  0  0  0  0  0  0  0  0  0  0
    7.9287  -17.6875    0.0000 C   0  0  0  0  0  0  0  0  0  0  0  0
    8.6407  -17.2792    0.0000 C   0  0  0  0  0  0  0  0  0  0  0  0
    8.6407  -16.4542    0.0000 C   0  0  0  0  0  0  0  0  0  0  0  0
    7.9287  -16.0375    0.0000 O   0  0  0  0  0  0  0  0  0  0  0  0
    7.9287  -18.5125    0.0000 S   0  0  0  0  0  0  0  0  0  0  0  0
    9.3546  -17.6927    0.0000 O   0  0  0  0  0  0  0  0  0  0  0  0
    9.3564  -16.0438    0.0000 C   0  0  0  0  0  0  0  0  0  0  0  0
  2  3  1  0
  3  4  1  0
  4  5  2  0
  5  6  1  0
  3  7  2  0
  1  2  2  0
  4  8  1  0
  1  6  1  0
  5  9  1  0
M  END

> <chembl_id>
CHEMBL1650615

> <chembl_pref_name>
None

$$$$

     RDKit          2D

  8  8  0  0  0  0  0  0  0  0999 V2000
   -3.1250  -16.3917    0.0000 C   0  0  0  0  0  0  0  0  0  0  0  0
   -3.1250  -17.2167    0.0000 C   0  0  0  0  0  0  0  0  0  0  0  0
   -2.4130  -17.6250    0.0000 C   0  0  0  0  0  0  0  0  0  0  0  0
   -1.7010  -17.2167    0.0000 C   0  0  0  0  0  0  0  0  0  0  0  0
   -1.7010  -16.3917    0.0000 C   0  0  0  0  0  0  0  0  0  0  0  0
   -2.4130  -15.9750    0.0000 O   0  0  0  0  0  0  0  0  0  0  0  0
   -2.4130  -18.4500    0.0000 S   0  0  0  0  0  0  0  0  0  0  0  0
   -0.9871  -17.6302    0.0000 O   0  0  0  0  0  0  0  0  0  0  0  0
  1  6  1  0
  2  3  1  0
  3  4  1  0
  4  5  2  0
  5  6  1  0
  3  7  2  0
  1  2  2  0
  4  8  1  0
M  END

> <chembl_id>
CHEMBL1649594

> <chembl_pref_name>
None

$$$$

     RDKit          2D

  8  8  0  0  0  0  0  0  0  0999 V2000
   -3.6396   -0.5864    0.0000 O   0  0  0  0  0  0  0  0  0  0  0  0
   -2.7730   -0.0874    0.0000 C   0  0  0  0  0  0  0  0  0  0  0  0
   -1.9076   -0.5882    0.0000 C   0  0  0  0  0  0  0  0  0  0  0  0
   -1.0412   -0.0892    0.0000 C   0  0  0  0  0  0  0  0  0  0  0  0
   -0.9354    0.9050    0.0000 N   0  0  0  0  0  0  0  0  0  0  0  0
    0.0430    1.1120    0.0000 C   0  0  0  0  0  0  0  0  0  0  0  0
    0.5418    0.2454    0.0000 C   0  0  0  0  0  0  0  0  0  0  0  0
   -0.1280   -0.4970    0.0000 S   0  0  0  0  0  0  0  0  0  0  0  0
  1  2  1  0
  2  3  1  0
  3  4  1  0
  4  5  2  0
  5  6  1  0
  6  7  2  0
  7  8  1  0
  8  4  1  0
M  END

> <chembl_id>
CHEMBL4542341

> <chembl_pref_name>
None

$$$$

     RDKit          2D

  9  9  0  0  0  0  0  0  0  0999 V2000
   -2.1137    5.5862    0.0000 S   0  0  0  0  0  0  0  0  0  0  0  0
   -2.8281    5.9987    0.0000 C   0  0  0  0  0  0  0  0  0  0  0  0
   -3.5426    5.5862    0.0000 C   0  0  0  0  0  0  0  0  0  0  0  0
   -3.5426    7.2362    0.0000 C   0  0  0  0  0  0  0  0  0  0  0  0
   -2.8281    6.8237    0.0000 C   0  0  0  0  0  0  0  0  0  0  0  0
   -4.2571    5.9987    0.0000 C   0  0  0  0  0  0  0  0  0  0  0  0
   -4.2571    6.8237    0.0000 C   0  0  0  0  0  0  0  0  0  0  0  0
   -3.5426    4.7612    0.0000 C   0  0  0  0  0  0  0  0  0  0  0  0
   -3.5426    8.0612    0.0000 C   0  0  0  0  0  0  0  0  0  0  0  0
  1  2  1  0
  2  3  1  0
  2  5  2  0
  3  6  2  0
  3  8  1  0
  4  5  1  0
  4  7  2  0
  4  9  1  0
  6  7  1  0
M  END

> <chembl_id>
CHEMBL1433856

> <chembl_pref_name>
None

$$$$

     RDKit          2D

 10 10  0  0  0  0  0  0  0  0999 V2000
    9.5373   -6.4191    0.0000 C   0  0  0  0  0  0  0  0  0  0  0  0
    8.8277   -5.1924    0.0000 O   0  0  0  0  0  0  0  0  0  0  0  0
   10.2447   -6.0098    0.0000 N   0  0  0  0  0  0  0  0  0  0  0  0
    8.1183   -6.4189    0.0000 O   0  0  0  0  0  0  0  0  0  0  0  0
    8.8277   -6.0096    0.0000 C   0  0  0  0  0  0  0  0  0  0  0  0
    9.5421   -7.2347    0.0000 C   0  0  0  0  0  0  0  0  0  0  0  0
    8.8813   -7.7155    0.0000 C   0  0  0  0  0  0  0  0  0  0  0  0
    9.1343   -8.4926    0.0000 C   0  0  0  0  0  0  0  0  0  0  0  0
    9.9516   -8.4920    0.0000 C   0  0  0  0  0  0  0  0  0  0  0  0
   10.2035   -7.7147    0.0000 O   0  0  0  0  0  0  0  0  0  0  0  0
  1  5  1  0
  5  4  1  0
  1  3  1  1
  5  2  2  0
  6  7  2  0
  7  8  1  0
  8  9  2  0
  9 10  1  0
 10  6  1  0
  1  6  1  0
M  END

> <chembl_id>
CHEMBL4094390

> <chembl_pref_name>
None

$$$$

     RDKit          2D

 10 10  0  0  0  0  0  0  0  0999 V2000
   30.1310  -16.3452    0.0000 C   0  0  0  0  0  0  0  0  0  0  0  0
   29.7012  -17.0497    0.0000 C   0  0  0  0  0  0  0  0  0  0  0  0
   28.8769  -17.0082    0.0000 C   0  0  0  0  0  0  0  0  0  0  0  0
   28.5866  -17.7803    0.0000 C   0  0  0  0  0  0  0  0  0  0  0  0
   29.2314  -18.2951    0.0000 N   0  0  0  0  0  0  0  0  0  0  0  0
   29.9199  -17.8410    0.0000 O   0  0  0  0  0  0  0  0  0  0  0  0
   27.7912  -17.9993    0.0000 C   0  0  0  0  0  0  0  0  0  0  0  0
   30.9558  -16.3652    0.0000 C   0  0  0  0  0  0  0  0  0  0  0  0
   31.3855  -15.6610    0.0000 O   0  0  0  0  0  0  0  0  0  0  0  0
   31.3508  -17.0894    0.0000 O   0  0  0  0  0  0  0  0  0  0  0  0
  1  2  1  0
  2  3  2  0
  3  4  1  0
  4  5  2  0
  5  6  1  0
  6  2  1  0
  4  7  1  0
  1  8  1  0
  8  9  2  0
  8 10  1  0
M  END

> <chembl_id>
CHEMBL3108872

> <chembl_pref_name>
None

$$$$

     RDKit          2D

 11 12  0  0  0  0  0  0  0  0999 V2000
   13.2759   -2.8477    0.0000 C   0  0  0  0  0  0  0  0  0  0  0  0
   13.2747   -3.6673    0.0000 C   0  0  0  0  0  0  0  0  0  0  0  0
   13.9828   -4.0763    0.0000 C   0  0  0  0  0  0  0  0  0  0  0  0
   13.9810   -2.4389    0.0000 C   0  0  0  0  0  0  0  0  0  0  0  0
   14.6896   -2.8442    0.0000 C   0  0  0  0  0  0  0  0  0  0  0  0
   14.6884   -3.6693    0.0000 C   0  0  0  0  0  0  0  0  0  0  0  0
   15.3985   -4.0807    0.0000 C   0  0  0  0  0  0  0  0  0  0  0  0
   16.1144   -3.6714    0.0000 N   0  0  0  0  0  0  0  0  0  0  0  0
   16.1155   -2.8462    0.0000 C   0  0  0  0  0  0  0  0  0  0  0  0
   15.4009   -2.4303    0.0000 C   0  0  0  0  0  0  0  0  0  0  0  0
   13.9785   -1.6217    0.0000 N   0  0  0  0  0  0  0  0  0  0  0  0
  1  2  2  0
  2  3  1  0
  3  6  2  0
  5  4  2  0
  4  1  1  0
  5  6  1  0
  5 10  1  0
  6  7  1  0
  7  8  1  0
  8  9  1  0
  9 10  1  0
  4 11  1  0
M  END

> <chembl_id>
CHEMBL3237624

> <chembl_pref_name>
None

$$$$

     RDKit          2D

  9  9  0  0  0  0  0  0  0  0999 V2000
    7.5381  -19.6883    0.0000 C   0  0  0  0  0  0  0  0  0  0  0  0
    7.5369  -20.5136    0.0000 C   0  0  0  0  0  0  0  0  0  0  0  0
    8.2500  -20.9254    0.0000 C   0  0  0  0  0  0  0  0  0  0  0  0
    8.9646  -20.5131    0.0000 C   0  0  0  0  0  0  0  0  0  0  0  0
    8.9618  -19.6846    0.0000 C   0  0  0  0  0  0  0  0  0  0  0  0
    8.2482  -19.2766    0.0000 C   0  0  0  0  0  0  0  0  0  0  0  0
    9.6729  -19.2705    0.0000 O   0  0  0  0  0  0  0  0  0  0  0  0
    8.2457  -18.4536    0.0000 Cl  0  0  0  0  0  0  0  0  0  0  0  0
    6.8185  -19.2731    0.0000 C   0  0  0  0  0  0  0  0  0  0  0  0
  1  2  2  0
  2  3  1  0
  3  4  2  0
  4  5  1  0
  5  6  2  0
  6  1  1  0
  5  7  1  0
  6  8  1  0
  1  9  1  0
M  END

> <chembl_id>
CHEMBL3236921

> <chembl_pref_name>
None

$$$$

     RDKit          2D

 10 10  0  0  0  0  0  0  0  0999 V2000
   -2.6104    0.5550    0.0000 N   0  0  0  0  0  0  0  0  0  0  0  0
   -1.7454    0.0532    0.0000 C   0  0  0  0  0  0  0  0  0  0  0  0
   -0.8784    0.5516    0.0000 C   0  0  0  0  0  0  0  0  0  0  0  0
   -0.8762    1.5516    0.0000 O   0  0  0  0  0  0  0  0  0  0  0  0
   -0.0132    0.0498    0.0000 C   0  0  0  0  0  0  0  0  0  0  0  0
    0.8538    0.5480    0.0000 C   0  0  0  0  0  0  0  0  0  0  0  0
    1.7188    0.0464    0.0000 C   0  0  0  0  0  0  0  0  0  0  0  0
    1.7168   -0.9536    0.0000 N   0  0  0  0  0  0  0  0  0  0  0  0
    0.8498   -1.4518    0.0000 C   0  0  0  0  0  0  0  0  0  0  0  0
   -0.0154   -0.9502    0.0000 C   0  0  0  0  0  0  0  0  0  0  0  0
  1  2  1  0
  2  3  1  0
  3  4  2  0
  3  5  1  0
  5  6  2  0
  6  7  1  0
  7  8  2  0
  8  9  1  0
  9 10  2  0
 10  5  1  0
M  END

> <chembl_id>
CHEMBL4565240

> <chembl_pref_name>
None

$$$$

     RDKit          2D

  9  9  0  0  0  0  0  0  0  0999 V2000
    0.3554    2.5902    0.0000 N   0  0  0  0  0  0  0  0  0  0  0  0
   -0.5116    2.0920    0.0000 C   0  0  0  0  0  0  0  0  0  0  0  0
   -0.5136    1.0920    0.0000 C   0  0  0  0  0  0  0  0  0  0  0  0
    0.3514    0.5904    0.0000 C   0  0  0  0  0  0  0  0  0  0  0  0
    0.3494   -0.4096    0.0000 C   0  0  0  0  0  0  0  0  0  0  0  0
   -0.5176   -0.9080    0.0000 N   0  0  0  0  0  0  0  0  0  0  0  0
   -1.3826   -0.4062    0.0000 C   0  0  0  0  0  0  0  0  0  0  0  0
   -2.2498   -0.9044    0.0000 N   0  0  0  0  0  0  0  0  0  0  0  0
   -1.3806    0.5938    0.0000 C   0  0  0  0  0  0  0  0  0  0  0  0
  1  2  1  0
  2  3  1  0
  3  4  2  0
  4  5  1  0
  5  6  2  0
  6  7  1  0
  7  8  1  0
  7  9  2  0
  9  3  1  0
M  END

> <chembl_id>
CHEMBL4525507

> <chembl_pref_name>
None

$$$$

     RDKit          2D

  8  8  0  0  0  0  0  0  0  0999 V2000
   -1.7998   -1.4320    0.0000 O   0  0  0  0  0  0  0  0  0  0  0  0
   -0.9334   -0.9326    0.0000 C   0  0  0  0  0  0  0  0  0  0  0  0
   -0.0678   -1.4334    0.0000 N   0  0  0  0  0  0  0  0  0  0  0  0
    0.7986   -0.9340    0.0000 C   0  0  0  0  0  0  0  0  0  0  0  0
    0.7994    0.0660    0.0000 C   0  0  0  0  0  0  0  0  0  0  0  0
   -0.0662    0.5666    0.0000 C   0  0  0  0  0  0  0  0  0  0  0  0
   -0.9326    0.0674    0.0000 C   0  0  0  0  0  0  0  0  0  0  0  0
   -1.7982    0.5680    0.0000 F   0  0  0  0  0  0  0  0  0  0  0  0
  1  2  1  0
  2  3  2  0
  3  4  1  0
  4  5  2  0
  5  6  1  0
  6  7  2  0
  7  8  1  0
  7  2  1  0
M  END

> <chembl_id>
CHEMBL4558322

> <chembl_pref_name>
None

$$$$

     RDKit          2D

 11 11  0  0  0  0  0  0  0  0999 V2000
   14.3640  -13.5802    0.0000 C   0  0  0  0  0  0  0  0  0  0  0  0
   15.0768  -13.1651    0.0000 C   0  0  0  0  0  0  0  0  0  0  0  0
   15.7929  -13.5749    0.0000 N   0  0  0  0  0  0  0  0  0  0  0  0
   16.5058  -13.1596    0.0000 C   0  0  0  0  0  0  0  0  0  0  0  0
   17.2219  -13.5695    0.0000 C   0  0  0  0  0  0  0  0  0  0  0  0
   16.5028  -12.3347    0.0000 N   0  0  0  0  0  0  0  0  0  0  0  0
   13.6492  -13.1670    0.0000 C   0  0  0  0  0  0  0  0  0  0  0  0
   12.9367  -13.5815    0.0000 C   0  0  0  0  0  0  0  0  0  0  0  0
   12.9393  -14.4075    0.0000 C   0  0  0  0  0  0  0  0  0  0  0  0
   13.6605  -14.8171    0.0000 C   0  0  0  0  0  0  0  0  0  0  0  0
   14.3699  -14.4002    0.0000 C   0  0  0  0  0  0  0  0  0  0  0  0
  1  2  1  0
  2  3  1  0
  3  4  1  0
  4  5  1  0
  4  6  2  0
  1  7  2  0
  7  8  1  0
  8  9  2  0
  9 10  1  0
 10 11  2  0
 11  1  1  0
M  END

> <chembl_id>
CHEMBL1186433

> <chembl_pref_name>
None

$$$$
 
     RDKit          2D

  8  8  0  0  0  0  0  0  0  0999 V2000
   11.1877   -4.8657    0.0000 C   0  0  0  0  0  0  0  0  0  0  0  0
   11.8975   -4.4549    0.0000 C   0  0  0  0  0  0  0  0  0  0  0  0
   11.8970   -3.6385    0.0000 N   0  0  0  0  0  0  0  0  0  0  0  0
   11.1883   -3.2298    0.0000 N   0  0  0  0  0  0  0  0  0  0  0  0
   10.4827   -4.4545    0.0000 C   0  0  0  0  0  0  0  0  0  0  0  0
   10.4796   -3.6394    0.0000 C   0  0  0  0  0  0  0  0  0  0  0  0
   11.1863   -5.6829    0.0000 C   0  0  0  0  0  0  0  0  0  0  0  0
   10.4779   -6.0903    0.0000 N   0  0  0  0  0  0  0  0  0  0  0  0
  1  2  2  0
  2  3  1  0
  3  4  2  0
  4  6  1  0
  5  1  1  0
  5  6  2  0
  1  7  1  0
  7  8  1  0
M  END

> <chembl_id>
CHEMBL4542036

> <chembl_pref_name>
None

$$$$

     RDKit          2D

  8  8  0  0  0  0  0  0  0  0999 V2000
   34.4005   -5.9374    0.0000 C   0  0  0  0  0  0  0  0  0  0  0  0
   35.0496   -6.4339    0.0000 N   0  0  0  0  0  0  0  0  0  0  0  0
   35.7235   -5.9715    0.0000 C   0  0  0  0  0  0  0  0  0  0  0  0
   35.4898   -5.1857    0.0000 C   0  0  0  0  0  0  0  0  0  0  0  0
   34.6737   -5.1685    0.0000 C   0  0  0  0  0  0  0  0  0  0  0  0
   36.4939   -6.2441    0.0000 C   0  0  0  0  0  0  0  0  0  0  0  0
   36.6429   -7.0476    0.0000 O   0  0  0  0  0  0  0  0  0  0  0  0
   35.0285   -7.2508    0.0000 C   0  0  0  0  0  0  0  0  0  0  0  0
  1  2  1  0
  2  3  1  0
  3  4  2  0
  4  5  1  0
  5  1  2  0
  3  6  1  0
  6  7  2  0
  2  8  1  0
M  END

> <chembl_id>
CHEMBL2229659

> <chembl_pref_name>
None

$$$$

     RDKit          2D

 11 12  0  0  0  0  0  0  0  0999 V2000
   -1.0823    1.0387    0.0000 C   0  0  0  0  0  0  0  0  0  0  0  0
   -1.8128    0.6504    0.0000 C   0  0  0  0  0  0  0  0  0  0  0  0
   -1.8409   -0.1746    0.0000 C   0  0  0  0  0  0  0  0  0  0  0  0
   -1.1390   -0.6122    0.0000 C   0  0  0  0  0  0  0  0  0  0  0  0
   -0.4075   -0.2190    0.0000 C   0  0  0  0  0  0  0  0  0  0  0  0
   -0.3831    0.6047    0.0000 C   0  0  0  0  0  0  0  0  0  0  0  0
    0.2943   -0.6527    0.0000 C   0  0  0  0  0  0  0  0  0  0  0  0
    0.6864   -1.3770    0.0000 C   0  0  0  0  0  0  0  0  0  0  0  0
    1.1201   -0.6753    0.0000 C   0  0  0  0  0  0  0  0  0  0  0  0
    1.8461   -0.2834    0.0000 C   0  0  0  0  0  0  0  0  0  0  0  0
    2.5485   -0.7161    0.0000 N   0  0  0  0  0  0  0  0  0  0  0  0
  1  2  2  0
  2  3  1  0
  3  4  2  0
  4  5  1  0
  5  6  2  0
  6  1  1  0
  7  5  1  6
  8  7  1  0
  9  8  1  0
  7  9  1  0
  9 10  1  1
 10 11  1  0
M  END

> <chembl_id>
CHEMBL1186169

> <chembl_pref_name>
None

$$$$

     RDKit          2D

 10 10  0  0  0  0  0  0  0  0999 V2000
    2.4700    2.8012    0.0000 C   0  0  0  0  0  0  0  0  0  0  0  0
    2.4692    1.8012    0.0000 O   0  0  0  0  0  0  0  0  0  0  0  0
    1.6028    1.3018    0.0000 C   0  0  0  0  0  0  0  0  0  0  0  0
    0.7372    1.8026    0.0000 C   0  0  0  0  0  0  0  0  0  0  0  0
   -0.1292    1.3032    0.0000 C   0  0  0  0  0  0  0  0  0  0  0  0
   -0.1300    0.3032    0.0000 C   0  0  0  0  0  0  0  0  0  0  0  0
   -0.9964   -0.1960    0.0000 C   0  0  0  0  0  0  0  0  0  0  0  0
   -1.8620    0.3046    0.0000 N   0  0  0  0  0  0  0  0  0  0  0  0
    0.7356   -0.1974    0.0000 C   0  0  0  0  0  0  0  0  0  0  0  0
    1.6020    0.3018    0.0000 N   0  0  0  0  0  0  0  0  0  0  0  0
  1  2  1  0
  2  3  1  0
  3  4  2  0
  4  5  1  0
  5  6  2  0
  6  7  1  0
  7  8  1  0
  6  9  1  0
  9 10  2  0
 10  3  1  0
M  END

> <chembl_id>
CHEMBL4565449

> <chembl_pref_name>
None

$$$$

     RDKit          2D

 11 11  0  0  0  0  0  0  0  0999 V2000
   11.1293  -11.0441    0.0000 C   0  0  0  0  0  0  0  0  0  0  0  0
   11.5420  -11.7532    0.0000 O   0  0  0  0  0  0  0  0  0  0  0  0
    9.0781  -10.3350    0.0000 C   0  0  0  0  0  0  0  0  0  0  0  0
    9.8994  -10.3350    0.0000 C   0  0  0  0  0  0  0  0  0  0  0  0
   10.3080  -11.0441    0.0000 C   0  0  0  0  0  0  0  0  0  0  0  0
    9.8994  -11.7532    0.0000 C   0  0  0  0  0  0  0  0  0  0  0  0
    9.0781  -11.7532    0.0000 C   0  0  0  0  0  0  0  0  0  0  0  0
    8.6653  -11.0441    0.0000 N   0  0  0  0  0  0  0  0  0  0  0  0
   11.5420  -10.3350    0.0000 C   0  0  0  0  0  0  0  0  0  0  0  0
   12.3633  -10.3350    0.0000 C   0  0  0  0  0  0  0  0  0  0  0  0
   12.7719   -9.6218    0.0000 C   0  0  0  0  0  0  0  0  0  0  0  0
  1  2  2  0
  3  4  1  0
  4  5  2  0
  5  6  1  0
  6  7  2  0
  7  8  1  0
  3  8  2  0
  1  5  1  0
  9 10  1  0
 10 11  1  0
  1  9  1  0
M  END

> <chembl_id>
CHEMBL2253150

> <chembl_pref_name>
PROPYL 4-PYRIDYL KETONE

$$$$

     RDKit          2D

 10 10  0  0  0  0  0  0  0  0999 V2000
    5.2379  -20.7154    0.0000 C   0  0  0  0  0  0  0  0  0  0  0  0
    4.9941  -21.5036    0.0000 N   0  0  0  0  0  0  0  0  0  0  0  0
    5.6673  -21.9808    0.0000 O   0  0  0  0  0  0  0  0  0  0  0  0
    6.3301  -21.4853    0.0000 C   0  0  0  0  0  0  0  0  0  0  0  0
    6.0618  -20.7060    0.0000 C   0  0  0  0  0  0  0  0  0  0  0  0
    4.7445  -20.0542    0.0000 N   0  0  0  0  0  0  0  0  0  0  0  0
    3.9194  -20.0269    0.0000 C   0  0  0  0  0  0  0  0  0  0  0  0
    3.5312  -19.2989    0.0000 C   0  0  0  0  0  0  0  0  0  0  0  0
    3.9675  -18.5987    0.0000 C   0  0  0  0  0  0  0  0  0  0  0  0
    2.7066  -19.2711    0.0000 C   0  0  0  0  0  0  0  0  0  0  0  0
  1  2  2  0
  2  3  1  0
  3  4  1  0
  4  5  2  0
  5  1  1  0
  1  6  1  0
  6  7  1  0
  7  8  1  0
  8  9  1  0
  8 10  1  0
M  END

> <chembl_id>
CHEMBL2436828

> <chembl_pref_name>
None

$$$$

     RDKit          2D

  9  9  0  0  0  0  0  0  0  0999 V2000
    1.5818    0.0906    0.0000 C   0  0  0  0  0  0  0  0  0  0  0  0
    0.5876   -0.0166    0.0000 C   0  0  0  0  0  0  0  0  0  0  0  0
    0.0900   -0.8840    0.0000 C   0  0  0  0  0  0  0  0  0  0  0  0
   -0.8886   -0.6788    0.0000 C   0  0  0  0  0  0  0  0  0  0  0  0
   -0.9958    0.3154    0.0000 C   0  0  0  0  0  0  0  0  0  0  0  0
   -1.8632    0.8130    0.0000 C   0  0  0  0  0  0  0  0  0  0  0  0
   -2.7278    0.3106    0.0000 N   0  0  0  0  0  0  0  0  0  0  0  0
   -0.0834    0.7246    0.0000 N   0  0  0  0  0  0  0  0  0  0  0  0
    0.1218    1.7034    0.0000 C   0  0  0  0  0  0  0  0  0  0  0  0
  1  2  1  0
  2  3  2  0
  3  4  1  0
  4  5  2  0
  5  6  1  0
  6  7  1  0
  5  8  1  0
  8  9  1  0
  8  2  1  0
M  END

> <chembl_id>
CHEMBL4547540

> <chembl_pref_name>
None

$$$$

     RDKit          2D

  9 10  0  0  0  0  0  0  0  0999 V2000
    4.2875   -1.3042    0.0000 N   0  0  0  0  0  0  0  0  0  0  0  0
    3.8792   -0.0417    0.0000 N   0  0  0  0  0  0  0  0  0  0  0  0
    4.5375   -0.5250    0.0000 C   0  0  0  0  0  0  0  0  0  0  0  0
    3.1792    1.2083    0.0000 C   0  0  0  0  0  0  0  0  0  0  0  0
    2.4750    1.6333    0.0000 C   0  0  0  0  0  0  0  0  0  0  0  0
    2.4542    0.8000    0.0000 C   0  0  0  0  0  0  0  0  0  0  0  0
    3.4625   -1.3042    0.0000 C   0  0  0  0  0  0  0  0  0  0  0  0
    3.2042   -0.5250    0.0000 C   0  0  0  0  0  0  0  0  0  0  0  0
    3.8917    0.7833    0.0000 C   0  0  0  0  0  0  0  0  0  0  0  0
  2  3  1  0
  3  1  2  0
  4  9  1  0
  5  4  1  0
  6  4  1  0
  7  1  1  0
  8  7  2  0
  9  2  1  0
  2  8  1  0
  6  5  1  0
M  END

> <chembl_id>
CHEMBL116766

> <chembl_pref_name>
None

$$$$

     RDKit          2D

 10 10  0  0  0  0  0  0  0  0999 V2000
   -1.7040   -1.8358    0.0000 N   0  0  0  0  0  0  0  0  0  0  0  0
   -1.7032   -0.8358    0.0000 C   0  0  0  0  0  0  0  0  0  0  0  0
   -2.5688   -0.3352    0.0000 O   0  0  0  0  0  0  0  0  0  0  0  0
   -0.8368   -0.3366    0.0000 C   0  0  0  0  0  0  0  0  0  0  0  0
    0.0288   -0.8372    0.0000 C   0  0  0  0  0  0  0  0  0  0  0  0
    0.8952   -0.3380    0.0000 N   0  0  0  0  0  0  0  0  0  0  0  0
    0.8960    0.6620    0.0000 C   0  0  0  0  0  0  0  0  0  0  0  0
    0.0304    1.1628    0.0000 N   0  0  0  0  0  0  0  0  0  0  0  0
   -0.8360    0.6634    0.0000 C   0  0  0  0  0  0  0  0  0  0  0  0
   -1.7016    1.1642    0.0000 N   0  0  0  0  0  0  0  0  0  0  0  0
  1  2  1  0
  2  3  2  0
  2  4  1  0
  4  5  2  0
  5  6  1  0
  6  7  2  0
  7  8  1  0
  8  9  2  0
  9 10  1  0
  9  4  1  0
M  END

> <chembl_id>
CHEMBL4522609

> <chembl_pref_name>
None

$$$$

     RDKit          2D

 10 10  0  0  0  0  0  0  0  0999 V2000
    1.1638    1.5412    0.0000 C   0  0  0  0  0  0  0  0  0  0  0  0
    0.9570    0.5628    0.0000 C   0  0  0  0  0  0  0  0  0  0  0  0
    1.6268   -0.1796    0.0000 N   0  0  0  0  0  0  0  0  0  0  0  0
    1.1278   -1.0462    0.0000 N   0  0  0  0  0  0  0  0  0  0  0  0
    0.1496   -0.8394    0.0000 C   0  0  0  0  0  0  0  0  0  0  0  0
    0.0438    0.1550    0.0000 C   0  0  0  0  0  0  0  0  0  0  0  0
   -0.8228    0.6540    0.0000 C   0  0  0  0  0  0  0  0  0  0  0  0
   -1.6880    0.1530    0.0000 C   0  0  0  0  0  0  0  0  0  0  0  0
   -2.5546    0.6520    0.0000 C   0  0  0  0  0  0  0  0  0  0  0  0
   -3.4200    0.1510    0.0000 N   0  0  0  0  0  0  0  0  0  0  0  0
  1  2  1  0
  2  3  1  0
  3  4  1  0
  4  5  2  0
  5  6  1  0
  6  7  1  0
  7  8  1  0
  8  9  1  0
  9 10  1  0
  6  2  2  0
M  END

> <chembl_id>
CHEMBL4553426

> <chembl_pref_name>
None

$$$$

     RDKit          2D

  9  8  0  0  0  0  0  0  0  0999 V2000
    5.8667   -2.8417    0.0000 Cl  0  0  0  0  0  0  0  0  0  0  0  0
    6.3958   -1.4042    0.0000 N   0  0  0  0  0  0  0  0  0  0  0  0
    5.8208   -0.9875    0.0000 N   0  0  0  0  0  0  0  0  0  0  0  0
    6.1792   -2.0792    0.0000 C   0  0  0  0  0  0  0  0  0  0  0  0
    5.4667   -2.0792    0.0000 C   0  0  0  0  0  0  0  0  0  0  0  0
    5.2500   -1.4083    0.0000 C   0  0  0  0  0  0  0  0  0  0  0  0
    6.7958   -2.4333    0.0000 C   0  0  0  0  0  0  0  0  0  0  0  0
    8.0292   -2.4208    0.0000 N   0  0  0  0  0  0  0  0  0  0  0  0
    7.4083   -2.0708    0.0000 C   0  0  0  0  0  0  0  0  0  0  0  0
  3  2  1  0
  4  2  2  0
  5  4  1  0
  6  3  1  0
  7  4  1  0
  8  9  1  0
  9  7  1  0
  6  5  2  0
M  END

> <chembl_id>
CHEMBL1200949

> <chembl_pref_name>
BETAZOLE HYDROCHLORIDE

$$$$

     RDKit          2D

 11 11  0  0  0  0  0  0  0  0999 V2000
    5.7375   -2.0917    0.0000 N   0  0  0  0  0  0  0  0  0  0  0  0
    5.7292   -1.2750    0.0000 C   0  0  0  0  0  0  0  0  0  0  0  0
    5.7417   -5.3917    0.0000 C   0  0  0  0  0  0  0  0  0  0  0  0
    5.7417   -4.5667    0.0000 C   0  0  0  0  0  0  0  0  0  0  0  0
    5.0292   -5.8042    0.0000 O   0  0  0  0  0  0  0  0  0  0  0  0
    5.7417   -2.9125    0.0000 C   0  0  0  0  0  0  0  0  0  0  0  0
    6.4625   -4.1542    0.0000 C   0  0  0  0  0  0  0  0  0  0  0  0
    5.0292   -4.1542    0.0000 C   0  0  0  0  0  0  0  0  0  0  0  0
    6.4625   -3.3250    0.0000 C   0  0  0  0  0  0  0  0  0  0  0  0
    5.0292   -3.3250    0.0000 C   0  0  0  0  0  0  0  0  0  0  0  0
    6.4625   -5.8042    0.0000 C   0  0  0  0  0  0  0  0  0  0  0  0
  2  1  3  0
  3  4  1  0
  4  8  1  0
  5  3  2  0
  6  1  1  0
  7  9  1  0
  8 10  2  0
  9  6  2  0
 10  6  1  0
 11  3  1  0
  7  4  2  0
M  CHG  2   1   1   2  -1
M  END

> <chembl_id>
CHEMBL74929

> <chembl_pref_name>
None

$$$$
 
     RDKit          2D

  8  8  0  0  0  0  0  0  0  0999 V2000
    9.5944  -21.3790    0.0000 C   0  0  0  0  0  0  0  0  0  0  0  0
    9.5932  -22.1985    0.0000 C   0  0  0  0  0  0  0  0  0  0  0  0
   10.3013  -22.6075    0.0000 N   0  0  0  0  0  0  0  0  0  0  0  0
   11.0110  -22.1981    0.0000 C   0  0  0  0  0  0  0  0  0  0  0  0
   11.0081  -21.3754    0.0000 N   0  0  0  0  0  0  0  0  0  0  0  0
   10.2995  -20.9701    0.0000 C   0  0  0  0  0  0  0  0  0  0  0  0
   11.7177  -22.6037    0.0000 C   0  0  0  0  0  0  0  0  0  0  0  0
   12.4260  -23.0112    0.0000 C   0  0  0  0  0  0  0  0  0  0  0  0
  1  2  2  0
  2  3  1  0
  3  4  2  0
  4  5  1  0
  5  6  2  0
  6  1  1  0
  7  8  3  0
  4  7  1  0
M  END

> <chembl_id>
CHEMBL4561532

> <chembl_pref_name>
None

$$$$

     RDKit          2D

  8  8  0  0  0  0  0  0  0  0999 V2000
   -2.1546   -1.4238    0.0000 C   0  0  0  0  0  0  0  0  0  0  0  0
   -1.2434   -1.0122    0.0000 C   0  0  0  0  0  0  0  0  0  0  0  0
   -0.3748   -1.5076    0.0000 N   0  0  0  0  0  0  0  0  0  0  0  0
    0.3648   -0.8346    0.0000 O   0  0  0  0  0  0  0  0  0  0  0  0
   -0.0466    0.0768    0.0000 C   0  0  0  0  0  0  0  0  0  0  0  0
    0.4488    0.9454    0.0000 N   0  0  0  0  0  0  0  0  0  0  0  0
   -1.0406   -0.0330    0.0000 C   0  0  0  0  0  0  0  0  0  0  0  0
   -1.7136    0.7066    0.0000 Cl  0  0  0  0  0  0  0  0  0  0  0  0
  1  2  1  0
  2  3  2  0
  3  4  1  0
  4  5  1  0
  5  6  1  0
  5  7  2  0
  7  8  1  0
  7  2  1  0
M  END

> <chembl_id>
CHEMBL4583317

> <chembl_pref_name>
None

$$$$

     RDKit          2D

 10 10  0  0  0  0  0  0  0  0999 V2000
   13.1438  -18.1887    0.0000 C   0  0  0  0  0  0  0  0  0  0  0  0
   13.1427  -19.0082    0.0000 C   0  0  0  0  0  0  0  0  0  0  0  0
   13.8507  -19.4172    0.0000 C   0  0  0  0  0  0  0  0  0  0  0  0
   14.5604  -19.0077    0.0000 C   0  0  0  0  0  0  0  0  0  0  0  0
   14.5575  -18.1851    0.0000 C   0  0  0  0  0  0  0  0  0  0  0  0
   13.8489  -17.7798    0.0000 C   0  0  0  0  0  0  0  0  0  0  0  0
   12.4360  -17.7802    0.0000 C   0  0  0  0  0  0  0  0  0  0  0  0
   11.7284  -18.1890    0.0000 O   0  0  0  0  0  0  0  0  0  0  0  0
   15.2637  -17.7738    0.0000 O   0  0  0  0  0  0  0  0  0  0  0  0
   15.9729  -18.1797    0.0000 C   0  0  0  0  0  0  0  0  0  0  0  0
  1  2  2  0
  2  3  1  0
  3  4  2  0
  4  5  1  0
  5  6  2  0
  6  1  1  0
  1  7  1  0
  7  8  1  0
  5  9  1  0
  9 10  1  0
M  END

> <chembl_id>
CHEMBL4128915

> <chembl_pref_name>
None

$$$$

     RDKit          2D

  8  8  0  0  0  0  0  0  0  0999 V2000
    0.3042   -0.5167    0.0000 C   0  0  0  0  0  0  0  0  0  0  0  0
    0.3042   -1.1250    0.0000 C   0  0  0  0  0  0  0  0  0  0  0  0
   -0.2125   -0.2167    0.0000 C   0  0  0  0  0  0  0  0  0  0  0  0
   -0.2208    0.3833    0.0000 Cl  0  0  0  0  0  0  0  0  0  0  0  0
    0.8250   -1.4250    0.0000 Cl  0  0  0  0  0  0  0  0  0  0  0  0
   -0.7333   -1.1250    0.0000 C   0  0  0  0  0  0  0  0  0  0  0  0
   -0.2125   -1.4250    0.0000 C   0  0  0  0  0  0  0  0  0  0  0  0
   -0.7333   -0.5250    0.0000 C   0  0  0  0  0  0  0  0  0  0  0  0
  2  1  1  0
  3  1  2  0
  4  3  1  0
  5  2  1  0
  6  8  2  0
  7  2  2  0
  8  3  1  0
  7  6  1  0
M  END

> <chembl_id>
CHEMBL45235

> <chembl_pref_name>
None

$$$$

     RDKit          2D

  8  9  0  0  0  0  0  0  0  0999 V2000
    2.3075  -12.5925    0.0000 N   0  0  0  0  0  0  0  0  0  0  0  0
    2.3075  -11.7679    0.0000 C   0  0  0  0  0  0  0  0  0  0  0  0
    3.0896  -11.5125    0.0000 N   0  0  0  0  0  0  0  0  0  0  0  0
    3.5730  -12.1756    0.0000 C   0  0  0  0  0  0  0  0  0  0  0  0
    3.0882  -12.8432    0.0000 C   0  0  0  0  0  0  0  0  0  0  0  0
    1.5246  -11.5110    0.0000 C   0  0  0  0  0  0  0  0  0  0  0  0
    1.0367  -12.1746    0.0000 C   0  0  0  0  0  0  0  0  0  0  0  0
    1.5212  -12.8430    0.0000 C   0  0  0  0  0  0  0  0  0  0  0  0
  1  2  1  0
  2  3  2  0
  3  4  1  0
  1  5  1  0
  7  8  1  0
  1  8  1  0
  2  6  1  0
  6  7  1  0
  5  4  2  0
M  END

> <chembl_id>
CHEMBL3304093

> <chembl_pref_name>
None

$$$$

     RDKit          2D

  7  7  0  0  0  0  0  0  0  0999 V2000
    1.3542   -2.7375    0.0000 C   0  0  0  0  0  0  0  0  0  0  0  0
    2.1875   -2.7375    0.0000 C   0  0  0  0  0  0  0  0  0  0  0  0
    2.4417   -1.9417    0.0000 N   0  0  0  0  0  0  0  0  0  0  0  0
    1.7750   -1.4625    0.0000 O   0  0  0  0  0  0  0  0  0  0  0  0
    1.1000   -1.9417    0.0000 C   0  0  0  0  0  0  0  0  0  0  0  0
    0.9375   -3.4500    0.0000 N   0  0  0  0  0  0  0  0  0  0  0  0
    2.6667   -3.4042    0.0000 O   0  0  0  0  0  0  0  0  0  0  0  0
  2  1  1  0
  3  2  2  0
  4  5  1  0
  5  1  2  0
  6  1  1  0
  7  2  1  0
  3  4  1  0
M  END

> <chembl_id>
CHEMBL67409

> <chembl_pref_name>
None

$$$$

     RDKit          2D

 10 10  0  0  0  0  0  0  0  0999 V2000
    0.7162    2.0708    0.0000 C   0  0  0  0  0  0  0  0  0  0  0  0
   -0.1508    1.5724    0.0000 C   0  0  0  0  0  0  0  0  0  0  0  0
   -0.1528    0.5724    0.0000 C   0  0  0  0  0  0  0  0  0  0  0  0
    0.7122    0.0708    0.0000 C   0  0  0  0  0  0  0  0  0  0  0  0
    0.7102   -0.9292    0.0000 C   0  0  0  0  0  0  0  0  0  0  0  0
   -0.1568   -1.4274    0.0000 C   0  0  0  0  0  0  0  0  0  0  0  0
   -1.0218   -0.9258    0.0000 C   0  0  0  0  0  0  0  0  0  0  0  0
   -1.0198    0.0742    0.0000 C   0  0  0  0  0  0  0  0  0  0  0  0
   -1.8848    0.5760    0.0000 C   0  0  0  0  0  0  0  0  0  0  0  0
   -2.7518    0.0776    0.0000 N   0  0  0  0  0  0  0  0  0  0  0  0
  1  2  1  0
  2  3  1  0
  3  4  2  0
  4  5  1  0
  5  6  2  0
  6  7  1  0
  7  8  2  0
  8  9  1  0
  9 10  1  0
  8  3  1  0
M  END

> <chembl_id>
CHEMBL4528219

> <chembl_pref_name>
None

$$$$

     RDKit          2D

 10 10  0  0  0  0  0  0  0  0999 V2000
   -0.7016   -1.1642    0.0000 C   0  0  0  0  0  0  0  0  0  0  0  0
    0.1640   -0.6634    0.0000 C   0  0  0  0  0  0  0  0  0  0  0  0
    1.0304   -1.1628    0.0000 N   0  0  0  0  0  0  0  0  0  0  0  0
    1.8960   -0.6620    0.0000 C   0  0  0  0  0  0  0  0  0  0  0  0
    1.8952    0.3380    0.0000 C   0  0  0  0  0  0  0  0  0  0  0  0
    1.0288    0.8372    0.0000 C   0  0  0  0  0  0  0  0  0  0  0  0
    0.1632    0.3366    0.0000 C   0  0  0  0  0  0  0  0  0  0  0  0
   -0.7032    0.8358    0.0000 C   0  0  0  0  0  0  0  0  0  0  0  0
   -0.7040    1.8358    0.0000 C   0  0  0  0  0  0  0  0  0  0  0  0
   -1.5688    0.3352    0.0000 O   0  0  0  0  0  0  0  0  0  0  0  0
  1  2  1  0
  2  3  2  0
  3  4  1  0
  4  5  2  0
  5  6  1  0
  6  7  2  0
  7  8  1  0
  8  9  1  0
  8 10  1  0
  7  2  1  0
M  END

> <chembl_id>
CHEMBL4569598

> <chembl_pref_name>
None

$$$$

     RDKit          2D

  9  9  0  0  0  0  0  0  0  0999 V2000
    2.5410   -1.6499    0.0000 Cl  0  0  0  0  0  0  0  0  0  0  0  0
    1.1121    0.8251    0.0000 N   0  0  0  0  0  0  0  0  0  0  0  0
    1.8265   -1.2374    0.0000 C   0  0  0  0  0  0  0  0  0  0  0  0
    1.1121   -1.6499    0.0000 C   0  0  0  0  0  0  0  0  0  0  0  0
    1.1121    0.0001    0.0000 C   0  0  0  0  0  0  0  0  0  0  0  0
    1.8265   -0.4124    0.0000 C   0  0  0  0  0  0  0  0  0  0  0  0
    0.3976   -1.2374    0.0000 C   0  0  0  0  0  0  0  0  0  0  0  0
    0.3976   -0.4124    0.0000 C   0  0  0  0  0  0  0  0  0  0  0  0
    1.1121   -2.4749    0.0000 C   0  0  0  0  0  0  0  0  0  0  0  0
  1  3  1  0
  2  5  1  0
  3  4  2  0
  3  6  1  0
  4  7  1  0
  4  9  1  0
  5  6  2  0
  5  8  1  0
  7  8  2  0
M  END

> <chembl_id>
CHEMBL1374337

> <chembl_pref_name>
None

$$$$

     RDKit          2D

 10 10  0  0  0  0  0  0  0  0999 V2000
   15.9518   -7.2029    0.0000 C   0  0  0  0  0  0  0  0  0  0  0  0
   16.6721   -7.6039    0.0000 C   0  0  0  0  0  0  0  0  0  0  0  0
   16.6825   -8.4288    0.0000 C   0  0  0  0  0  0  0  0  0  0  0  0
   15.9725   -8.8529    0.0000 C   0  0  0  0  0  0  0  0  0  0  0  0
   15.2521   -8.4474    0.0000 C   0  0  0  0  0  0  0  0  0  0  0  0
   15.2417   -7.6224    0.0000 C   0  0  0  0  0  0  0  0  0  0  0  0
   15.9414   -6.3780    0.0000 O   0  0  0  0  0  0  0  0  0  0  0  0
   17.4030   -8.8344    0.0000 O   0  0  0  0  0  0  0  0  0  0  0  0
   17.4134   -9.6593    0.0000 C   0  0  0  0  0  0  0  0  0  0  0  0
   18.1337  -10.0602    0.0000 C   0  0  0  0  0  0  0  0  0  0  0  0
  1  2  1  0
  2  3  2  0
  3  4  1  0
  4  5  2  0
  5  6  1  0
  1  6  2  0
  1  7  1  0
  9 10  1  0
  8  9  1  0
  3  8  1  0
M  END

> <chembl_id>
CHEMBL449241

> <chembl_pref_name>
1-hydroxy-3-ethoxybenzene

$$$$

     RDKit          2D

 11 12  0  0  0  0  0  0  0  0999 V2000
   -3.3785  -26.1208    0.0000 C   0  0  0  0  0  0  0  0  0  0  0  0
   -3.3797  -26.9446    0.0000 C   0  0  0  0  0  0  0  0  0  0  0  0
   -2.6679  -27.3556    0.0000 C   0  0  0  0  0  0  0  0  0  0  0  0
   -2.6697  -25.7097    0.0000 C   0  0  0  0  0  0  0  0  0  0  0  0
   -1.9575  -26.1172    0.0000 C   0  0  0  0  0  0  0  0  0  0  0  0
   -1.9526  -26.9446    0.0000 C   0  0  0  0  0  0  0  0  0  0  0  0
   -1.1641  -27.1957    0.0000 C   0  0  0  0  0  0  0  0  0  0  0  0
   -0.6816  -26.5234    0.0000 C   0  0  0  0  0  0  0  0  0  0  0  0
   -1.1720  -25.8569    0.0000 C   0  0  0  0  0  0  0  0  0  0  0  0
   -0.9227  -25.0742    0.0000 O   0  0  0  0  0  0  0  0  0  0  0  0
   -4.0901  -25.7102    0.0000 C   0  0  0  0  0  0  0  0  0  0  0  0
  2  3  1  0
  3  6  2  0
  1  2  2  0
  5  4  2  0
  6  7  1  0
  7  8  1  0
  8  9  1  0
  9  5  1  0
  4  1  1  0
  9 10  1  0
  5  6  1  0
  1 11  1  0
M  END

> <chembl_id>
CHEMBL202791

> <chembl_pref_name>
None

$$$$

     RDKit          2D

 10 11  0  0  0  0  0  0  0  0999 V2000
    1.9868    1.6324    0.0000 N   0  0  0  0  0  0  0  0  0  0  0  0
    1.6770    0.6818    0.0000 C   0  0  0  0  0  0  0  0  0  0  0  0
    2.2642   -0.1278    0.0000 N   0  0  0  0  0  0  0  0  0  0  0  0
    1.6758   -0.9362    0.0000 N   0  0  0  0  0  0  0  0  0  0  0  0
    0.7250   -0.6266    0.0000 C   0  0  0  0  0  0  0  0  0  0  0  0
    0.7258    0.3734    0.0000 N   0  0  0  0  0  0  0  0  0  0  0  0
   -0.1398    0.8742    0.0000 C   0  0  0  0  0  0  0  0  0  0  0  0
   -1.0062    0.3748    0.0000 C   0  0  0  0  0  0  0  0  0  0  0  0
   -1.0070   -0.6252    0.0000 C   0  0  0  0  0  0  0  0  0  0  0  0
   -0.1414   -1.1258    0.0000 C   0  0  0  0  0  0  0  0  0  0  0  0
  1  2  1  0
  2  3  2  0
  3  4  1  0
  4  5  2  0
  5  6  1  0
  6  7  1  0
  7  8  1  0
  8  9  1  0
  9 10  1  0
  6  2  1  0
 10  5  1  0
M  END

> <chembl_id>
CHEMBL4520961

> <chembl_pref_name>
None

$$$$

     RDKit          2D

 10 10  0  0  0  0  0  0  0  0999 V2000
   -2.0576   -1.2684    0.0000 C   0  0  0  0  0  0  0  0  0  0  0  0
   -1.4688   -0.4600    0.0000 C   0  0  0  0  0  0  0  0  0  0  0  0
   -0.4744   -0.5656    0.0000 C   0  0  0  0  0  0  0  0  0  0  0  0
    0.1956    0.1768    0.0000 N   0  0  0  0  0  0  0  0  0  0  0  0
    1.1086   -0.2310    0.0000 C   0  0  0  0  0  0  0  0  0  0  0  0
    1.9752    0.2680    0.0000 C   0  0  0  0  0  0  0  0  0  0  0  0
    2.8406   -0.2330    0.0000 C   0  0  0  0  0  0  0  0  0  0  0  0
    1.9764    1.2680    0.0000 N   0  0  0  0  0  0  0  0  0  0  0  0
    1.0030   -1.2254    0.0000 N   0  0  0  0  0  0  0  0  0  0  0  0
    0.0246   -1.4322    0.0000 N   0  0  0  0  0  0  0  0  0  0  0  0
  1  2  1  0
  2  3  1  0
  3  4  2  0
  4  5  1  0
  5  6  1  0
  6  7  1  0
  6  8  1  0
  5  9  2  0
  9 10  1  0
 10  3  1  0
M  END

> <chembl_id>
CHEMBL4559389

> <chembl_pref_name>
None

$$$$

     RDKit          2D

  8  8  0  0  0  0  0  0  0  0999 V2000
    0.8500    1.2875    0.0000 N   0  0  0  0  0  0  0  0  0  0  0  0
   -0.1083    0.2208    0.0000 C   0  0  0  0  0  0  0  0  0  0  0  0
   -2.5000   -0.5000    0.0000 O   0  0  0  0  0  0  0  0  0  0  0  0
    2.2500    0.9625    0.0000 C   0  0  0  0  0  0  0  0  0  0  0  0
   -1.5208    0.5458    0.0000 C   0  0  0  0  0  0  0  0  0  0  0  0
    0.3000   -1.1292    0.0000 C   0  0  0  0  0  0  0  0  0  0  0  0
    2.6792   -0.3875    0.0000 C   0  0  0  0  0  0  0  0  0  0  0  0
    1.7000   -1.4500    0.0000 C   0  0  0  0  0  0  0  0  0  0  0  0
  2  1  2  0
  3  5  1  0
  4  1  1  0
  5  2  1  0
  6  2  1  0
  7  4  2  0
  8  7  1  0
  6  8  2  0
M  END

> <chembl_id>
CHEMBL2103981

> <chembl_pref_name>
PICONOL

$$$$

     RDKit          2D

  8  8  0  0  0  0  0  0  0  0999 V2000
    6.1250   -6.4250    0.0000 C   0  0  0  0  0  0  0  0  0  0  0  0
    6.1250   -5.8250    0.0000 C   0  0  0  0  0  0  0  0  0  0  0  0
    5.6000   -6.7250    0.0000 N   0  0  0  0  0  0  0  0  0  0  0  0
    5.6000   -5.5250    0.0000 C   0  0  0  0  0  0  0  0  0  0  0  0
    5.0792   -6.4250    0.0000 C   0  0  0  0  0  0  0  0  0  0  0  0
    6.6417   -6.7250    0.0000 O   0  0  0  0  0  0  0  0  0  0  0  0
    5.0792   -5.8250    0.0000 C   0  0  0  0  0  0  0  0  0  0  0  0
    6.6375   -5.5167    0.0000 O   0  0  0  0  0  0  0  0  0  0  0  0
  2  1  1  0
  3  1  2  0
  4  2  2  0
  5  3  1  0
  6  1  1  0
  7  5  2  0
  8  2  1  0
  7  4  1  0
M  END

> <chembl_id>
CHEMBL287899

> <chembl_pref_name>
None

$$$$

     RDKit          2D

 10 10  0  0  0  0  0  0  0  0999 V2000
    1.4410   -1.5578    0.0000 C   0  0  0  0  0  0  0  0  0  0  0  0
    0.5754   -1.0570    0.0000 C   0  0  0  0  0  0  0  0  0  0  0  0
    0.5762   -0.0570    0.0000 C   0  0  0  0  0  0  0  0  0  0  0  0
   -0.2894    0.4436    0.0000 C   0  0  0  0  0  0  0  0  0  0  0  0
   -0.2886    1.4436    0.0000 O   0  0  0  0  0  0  0  0  0  0  0  0
   -1.1558   -0.0558    0.0000 N   0  0  0  0  0  0  0  0  0  0  0  0
   -1.1566   -1.0558    0.0000 C   0  0  0  0  0  0  0  0  0  0  0  0
   -2.0230   -1.5550    0.0000 C   0  0  0  0  0  0  0  0  0  0  0  0
   -2.8886   -1.0544    0.0000 N   0  0  0  0  0  0  0  0  0  0  0  0
   -0.2910   -1.5564    0.0000 N   0  0  0  0  0  0  0  0  0  0  0  0
  1  2  1  0
  2  3  2  0
  3  4  1  0
  4  5  2  0
  4  6  1  0
  6  7  1  0
  7  8  1  0
  8  9  1  0
  7 10  2  0
 10  2  1  0
M  END

> <chembl_id>
CHEMBL4518256

> <chembl_pref_name>
None

$$$$

     RDKit          2D

 10 10  0  0  0  0  0  0  0  0999 V2000
   -2.0366    0.2344    0.0000 C   0  0  0  0  0  0  0  0  0  0  0  0
   -1.1688   -0.2624    0.0000 C   0  0  0  0  0  0  0  0  0  0  0  0
   -0.3046    0.2406    0.0000 C   0  0  0  0  0  0  0  0  0  0  0  0
    0.5632   -0.2562    0.0000 N   0  0  0  0  0  0  0  0  0  0  0  0
    1.4274    0.2468    0.0000 C   0  0  0  0  0  0  0  0  0  0  0  0
    2.2952   -0.2500    0.0000 C   0  0  0  0  0  0  0  0  0  0  0  0
    1.4238    1.2468    0.0000 C   0  0  0  0  0  0  0  0  0  0  0  0
    0.5560    1.7438    0.0000 C   0  0  0  0  0  0  0  0  0  0  0  0
    0.5524    2.7436    0.0000 N   0  0  0  0  0  0  0  0  0  0  0  0
   -0.3082    1.2406    0.0000 N   0  0  0  0  0  0  0  0  0  0  0  0
  1  2  1  0
  2  3  1  0
  3  4  2  0
  4  5  1  0
  5  6  1  0
  5  7  2  0
  7  8  1  0
  8  9  1  0
  8 10  2  0
 10  3  1  0
M  END

> <chembl_id>
CHEMBL4540784

> <chembl_pref_name>
None

$$$$

     RDKit          2D

 10 10  0  0  0  0  0  0  0  0999 V2000
    4.4125   -6.6292    0.0000 C   0  0  0  0  0  0  0  0  0  0  0  0
    3.7000   -7.0500    0.0000 C   0  0  0  0  0  0  0  0  0  0  0  0
    4.4042   -5.8042    0.0000 C   0  0  0  0  0  0  0  0  0  0  0  0
    3.7000   -7.8792    0.0000 C   0  0  0  0  0  0  0  0  0  0  0  0
    2.9792   -6.6375    0.0000 C   0  0  0  0  0  0  0  0  0  0  0  0
    2.2667   -7.8792    0.0000 C   0  0  0  0  0  0  0  0  0  0  0  0
    2.9792   -8.2917    0.0000 C   0  0  0  0  0  0  0  0  0  0  0  0
    2.2667   -7.0500    0.0000 C   0  0  0  0  0  0  0  0  0  0  0  0
    1.5542   -8.2917    0.0000 O   0  0  0  0  0  0  0  0  0  0  0  0
    5.1292   -7.0417    0.0000 C   0  0  0  0  0  0  0  0  0  0  0  0
  2  1  1  0
  3  1  2  0
  4  2  1  0
  5  2  2  0
  6  8  2  0
  7  4  2  0
  8  5  1  0
  9  6  1  0
 10  1  1  0
  6  7  1  0
M  END

> <chembl_id>
CHEMBL277808

> <chembl_pref_name>
None

$$$$

     RDKit          2D

  9  9  0  0  0  0  0  0  0  0999 V2000
    1.9537   -0.0186    0.0000 Cl  0  0  0  0  0  0  0  0  0  0  0  0
   -0.1897   -1.2561    0.0000 O   0  0  0  0  0  0  0  0  0  0  0  0
    1.2392   -1.2561    0.0000 C   0  0  0  0  0  0  0  0  0  0  0  0
    1.9537   -0.8436    0.0000 C   0  0  0  0  0  0  0  0  0  0  0  0
    1.2392   -2.0811    0.0000 C   0  0  0  0  0  0  0  0  0  0  0  0
    2.6682   -1.2561    0.0000 C   0  0  0  0  0  0  0  0  0  0  0  0
    0.5247   -0.8436    0.0000 C   0  0  0  0  0  0  0  0  0  0  0  0
    1.9537   -2.4936    0.0000 C   0  0  0  0  0  0  0  0  0  0  0  0
    2.6682   -2.0811    0.0000 C   0  0  0  0  0  0  0  0  0  0  0  0
  1  4  1  0
  2  7  2  0
  3  4  2  0
  3  5  1  0
  3  7  1  0
  4  6  1  0
  5  8  2  0
  6  9  2  0
  8  9  1  0
M  END

> <chembl_id>
CHEMBL1547989

> <chembl_pref_name>
None

$$$$

     RDKit          2D

 11 11  0  0  0  0  0  0  0  0999 V2000
   25.2947  -11.0862    0.0000 C   0  0  0  0  0  0  0  0  0  0  0  0
   26.0216  -10.6961    0.0000 C   0  0  0  0  0  0  0  0  0  0  0  0
   26.0459   -9.8733    0.0000 C   0  0  0  0  0  0  0  0  0  0  0  0
   25.3444   -9.4398    0.0000 C   0  0  0  0  0  0  0  0  0  0  0  0
   24.6166   -9.8351    0.0000 C   0  0  0  0  0  0  0  0  0  0  0  0
   24.5957  -10.6565    0.0000 C   0  0  0  0  0  0  0  0  0  0  0  0
   25.2705  -11.9165    0.0000 N   0  0  0  0  0  0  0  0  0  0  0  0
   25.3675   -8.6097    0.0000 C   0  0  0  0  0  0  0  0  0  0  0  0
   24.6600   -8.1745    0.0000 O   0  0  0  0  0  0  0  0  0  0  0  0
   26.0981   -8.2146    0.0000 C   0  0  0  0  0  0  0  0  0  0  0  0
   26.8055   -8.6498    0.0000 C   0  0  0  0  0  0  0  0  0  0  0  0
  1  2  2  0
  2  3  1  0
  3  4  2  0
  4  5  1  0
  5  6  2  0
  6  1  1  0
  1  7  1  0
  4  8  1  0
  8  9  2  0
  8 10  1  0
 10 11  1  0
M  END

> <chembl_id>
CHEMBL3278330

> <chembl_pref_name>
None

$$$$

     RDKit          2D

  6  6  0  0  0  0  0  0  0  0999 V2000
    2.5141   -3.0534    0.0000 N   0  0  0  0  0  0  0  0  0  0  0  0
    3.2202   -2.6422    0.0000 C   0  0  0  0  0  0  0  0  0  0  0  0
    3.9655   -2.9747    0.0000 N   0  0  0  0  0  0  0  0  0  0  0  0
    4.5100   -2.3650    0.0000 N   0  0  0  0  0  0  0  0  0  0  0  0
    4.0987   -1.6591    0.0000 C   0  0  0  0  0  0  0  0  0  0  0  0
    3.3001   -1.8322    0.0000 C   0  0  0  0  0  0  0  0  0  0  0  0
  1  2  1  0
  2  3  2  0
  3  4  1  0
  4  5  1  0
  5  6  2  0
  6  2  1  0
M  END

> <chembl_id>
CHEMBL3217770

> <chembl_pref_name>
None

$$$$

     RDKit          2D

  8  8  0  0  0  0  0  0  0  0999 V2000
    1.4430    0.3956    0.0000 C   0  0  0  0  0  0  0  0  0  0  0  0
    0.4486    0.5012    0.0000 C   0  0  0  0  0  0  0  0  0  0  0  0
   -0.2212   -0.2412    0.0000 C   0  0  0  0  0  0  0  0  0  0  0  0
   -1.1344    0.1666    0.0000 C   0  0  0  0  0  0  0  0  0  0  0  0
   -2.0010   -0.3324    0.0000 C   0  0  0  0  0  0  0  0  0  0  0  0
   -2.8662    0.1686    0.0000 N   0  0  0  0  0  0  0  0  0  0  0  0
   -1.0286    1.1610    0.0000 O   0  0  0  0  0  0  0  0  0  0  0  0
   -0.0504    1.3678    0.0000 N   0  0  0  0  0  0  0  0  0  0  0  0
  1  2  1  0
  2  3  1  0
  3  4  2  0
  4  5  1  0
  5  6  1  0
  4  7  1  0
  7  8  1  0
  8  2  2  0
M  END

> <chembl_id>
CHEMBL4577121

> <chembl_pref_name>
None

$$$$

     RDKit          2D

 11 11  0  0  0  0  0  0  0  0999 V2000
    1.5644    3.3768    0.0000 N   0  0  0  0  0  0  0  0  0  0  0  0
    1.5636    2.3768    0.0000 C   0  0  0  0  0  0  0  0  0  0  0  0
    1.5628    1.3768    0.0000 C   0  0  0  0  0  0  0  0  0  0  0  0
    0.6964    0.8776    0.0000 C   0  0  0  0  0  0  0  0  0  0  0  0
    0.6956   -0.1224    0.0000 C   0  0  0  0  0  0  0  0  0  0  0  0
   -0.1708   -0.6218    0.0000 C   0  0  0  0  0  0  0  0  0  0  0  0
   -1.0364   -0.1210    0.0000 C   0  0  0  0  0  0  0  0  0  0  0  0
   -1.9028   -0.6204    0.0000 C   0  0  0  0  0  0  0  0  0  0  0  0
   -2.7684   -0.1196    0.0000 O   0  0  0  0  0  0  0  0  0  0  0  0
   -1.0356    0.8790    0.0000 C   0  0  0  0  0  0  0  0  0  0  0  0
   -0.1692    1.3782    0.0000 C   0  0  0  0  0  0  0  0  0  0  0  0
  1  2  3  0
  2  3  1  0
  3  4  1  0
  4  5  2  0
  5  6  1  0
  6  7  2  0
  7  8  1  0
  8  9  1  0
  7 10  1  0
 10 11  2  0
 11  4  1  0
M  END

> <chembl_id>
CHEMBL4525429

> <chembl_pref_name>
None

$$$$

     RDKit          2D

 10 10  0  0  0  0  0  0  0  0999 V2000
   -0.1284   -1.6531    0.0000 C   0  0  0  0  0  0  0  0  0  0  0  0
    0.5860    2.0594    0.0000 N   0  0  0  0  0  0  0  0  0  0  0  0
    0.5860   -2.0656    0.0000 O   0  0  0  0  0  0  0  0  0  0  0  0
   -0.1284   -0.8281    0.0000 C   0  0  0  0  0  0  0  0  0  0  0  0
   -0.8429   -0.4156    0.0000 C   0  0  0  0  0  0  0  0  0  0  0  0
   -0.8429    0.4094    0.0000 C   0  0  0  0  0  0  0  0  0  0  0  0
   -0.1284    0.8219    0.0000 C   0  0  0  0  0  0  0  0  0  0  0  0
    0.5860    0.4094    0.0000 C   0  0  0  0  0  0  0  0  0  0  0  0
    0.5860   -0.4156    0.0000 C   0  0  0  0  0  0  0  0  0  0  0  0
   -0.1284    1.6469    0.0000 C   0  0  0  0  0  0  0  0  0  0  0  0
  1  3  1  0
  1  4  1  0
 10  2  1  0
  4  5  2  0
  4  9  1  0
  5  6  1  0
  6  7  2  0
  7  8  1  0
  7 10  1  0
  8  9  2  0
M  END

> <chembl_id>
CHEMBL1230249

> <chembl_pref_name>
None

$$$$

     RDKit          2D

 11 11  0  0  0  0  0  0  0  0999 V2000
   12.7167   -4.9667    0.0000 C   0  0  0  0  0  0  0  0  0  0  0  0
   13.6146   -4.4381    0.0000 C   0  0  0  0  0  0  0  0  0  0  0  0
   10.9167   -4.9667    0.0000 N   0  0  0  0  0  0  0  0  0  0  0  0
   11.8250   -5.4917    0.0000 C   0  0  0  0  0  0  0  0  0  0  0  0
    9.1125   -4.9625    0.0000 C   0  0  0  0  0  0  0  0  0  0  0  0
   10.0167   -5.4917    0.0000 C   0  0  0  0  0  0  0  0  0  0  0  0
    8.2167   -5.4792    0.0000 C   0  0  0  0  0  0  0  0  0  0  0  0
    9.1125   -3.9167    0.0000 C   0  0  0  0  0  0  0  0  0  0  0  0
    8.2167   -3.4042    0.0000 C   0  0  0  0  0  0  0  0  0  0  0  0
    7.3167   -4.9625    0.0000 C   0  0  0  0  0  0  0  0  0  0  0  0
    7.3167   -3.9167    0.0000 C   0  0  0  0  0  0  0  0  0  0  0  0
  2  1  3  0
  3  4  1  0
  4  1  1  0
  5  6  1  0
  6  3  1  0
  7  5  2  0
  8  5  1  0
  9  8  2  0
 10  7  1  0
 11  9  1  0
 10 11  2  0
M  END

> <chembl_id>
CHEMBL1322

> <chembl_pref_name>
N-BENZYLPROPARGYLAMINE

$$$$

     RDKit          2D

  8  8  0  0  0  0  0  0  0  0999 V2000
   -1.7408    0.0484    0.0000 C   0  0  0  0  0  0  0  0  0  0  0  0
   -0.8728    0.5450    0.0000 C   0  0  0  0  0  0  0  0  0  0  0  0
   -0.8688    1.5448    0.0000 N   0  0  0  0  0  0  0  0  0  0  0  0
   -0.0088    0.0416    0.0000 C   0  0  0  0  0  0  0  0  0  0  0  0
    0.9064    0.4446    0.0000 C   0  0  0  0  0  0  0  0  0  0  0  0
    1.5726   -0.3010    0.0000 C   0  0  0  0  0  0  0  0  0  0  0  0
    1.0692   -1.1652    0.0000 C   0  0  0  0  0  0  0  0  0  0  0  0
    0.0918   -0.9534    0.0000 O   0  0  0  0  0  0  0  0  0  0  0  0
  2  1  1  6
  2  3  1  0
  2  4  1  0
  4  5  2  0
  5  6  1  0
  6  7  2  0
  7  8  1  0
  8  4  1  0
M  END

> <chembl_id>
CHEMBL4548569

> <chembl_pref_name>
None

$$$$

     RDKit          2D

 10 10  0  0  0  0  0  0  0  0999 V2000
    2.4906   -0.3818    0.0000 C   0  0  0  0  0  0  0  0  0  0  0  0
    1.6228    0.1150    0.0000 C   0  0  0  0  0  0  0  0  0  0  0  0
    1.6192    1.1150    0.0000 C   0  0  0  0  0  0  0  0  0  0  0  0
    0.7514    1.6120    0.0000 N   0  0  0  0  0  0  0  0  0  0  0  0
   -0.1128    1.1088    0.0000 C   0  0  0  0  0  0  0  0  0  0  0  0
   -0.1092    0.1088    0.0000 C   0  0  0  0  0  0  0  0  0  0  0  0
   -0.9734   -0.3942    0.0000 C   0  0  0  0  0  0  0  0  0  0  0  0
   -1.8412    0.1026    0.0000 C   0  0  0  0  0  0  0  0  0  0  0  0
   -2.7054   -0.4004    0.0000 N   0  0  0  0  0  0  0  0  0  0  0  0
    0.7586   -0.3880    0.0000 N   0  0  0  0  0  0  0  0  0  0  0  0
  1  2  1  0
  2  3  2  0
  3  4  1  0
  4  5  2  0
  5  6  1  0
  6  7  1  0
  7  8  1  0
  8  9  1  0
  6 10  2  0
 10  2  1  0
M  END

> <chembl_id>
CHEMBL4541937

> <chembl_pref_name>
None

$$$$

     RDKit          2D

  9  9  0  0  0  0  0  0  0  0999 V2000
    1.2990   -0.7500    0.0000 C   0  0  0  0  0  0  0  0  0  0  0  0
    1.2990    0.7500    0.0000 C   0  0  0  0  0  0  0  0  0  0  0  0
    0.0000    1.5000    0.0000 N   0  0  0  0  0  0  0  0  0  0  0  0
   -1.2990    0.7500    0.0000 N   0  0  0  0  0  0  0  0  0  0  0  0
   -1.2990   -0.7500    0.0000 C   0  0  0  0  0  0  0  0  0  0  0  0
    0.0000   -1.5000    0.0000 C   0  0  0  0  0  0  0  0  0  0  0  0
    0.0000   -2.7000    0.0000 O   0  0  0  0  0  0  0  0  0  0  0  0
   -2.3383   -1.3500    0.0000 O   0  0  0  0  0  0  0  0  0  0  0  0
    0.0000    2.7000    0.0000 C   0  0  0  0  0  0  0  0  0  0  0  0
  1  2  2  0
  1  6  1  0
  2  3  1  0
  3  4  1  0
  4  5  2  0
  5  6  1  0
  6  7  2  0
  5  8  1  0
  3  9  1  0
M  END

> <chembl_id>
CHEMBL3785510

> <chembl_pref_name>
None

$$$$

     RDKit          2D

 10 10  0  0  0  0  0  0  0  0999 V2000
    3.4250   -0.6167    0.0000 C   0  0  0  0  0  0  0  0  0  0  0  0
    2.7042   -1.0292    0.0000 C   0  0  0  0  0  0  0  0  0  0  0  0
    3.4250    0.2083    0.0000 C   0  0  0  0  0  0  0  0  0  0  0  0
    4.8542   -0.6167    0.0000 N   0  0  0  0  0  0  0  0  0  0  0  0
    1.9917   -0.6167    0.0000 C   0  0  0  0  0  0  0  0  0  0  0  0
    2.7042    0.6208    0.0000 C   0  0  0  0  0  0  0  0  0  0  0  0
    4.1417   -1.0292    0.0000 C   0  0  0  0  0  0  0  0  0  0  0  0
    1.9917    0.2083    0.0000 C   0  0  0  0  0  0  0  0  0  0  0  0
    2.7042   -1.8542    0.0000 O   0  0  0  0  0  0  0  0  0  0  0  0
    2.7042    1.4458    0.0000 C   0  0  0  0  0  0  0  0  0  0  0  0
  2  1  2  0
  3  1  1  0
  4  7  1  0
  5  2  1  0
  6  3  2  0
  7  1  1  0
  8  6  1  0
  9  2  1  0
 10  6  1  0
  5  8  2  0
M  END

> <chembl_id>
CHEMBL1159776

> <chembl_pref_name>
None

$$$$

     RDKit          2D

  9  9  0  0  0  0  0  0  0  0999 V2000
   -3.9325  -15.7907    0.0000 C   0  0  0  0  0  0  0  0  0  0  0  0
   -3.9336  -16.6175    0.0000 C   0  0  0  0  0  0  0  0  0  0  0  0
   -3.2192  -17.0302    0.0000 C   0  0  0  0  0  0  0  0  0  0  0  0
   -2.5032  -16.6171    0.0000 C   0  0  0  0  0  0  0  0  0  0  0  0
   -2.5060  -15.7870    0.0000 C   0  0  0  0  0  0  0  0  0  0  0  0
   -3.2210  -15.3782    0.0000 C   0  0  0  0  0  0  0  0  0  0  0  0
   -3.2194  -17.8547    0.0000 F   0  0  0  0  0  0  0  0  0  0  0  0
   -4.6480  -17.0293    0.0000 N   0  0  0  0  0  0  0  0  0  0  0  0
   -3.2235  -14.5536    0.0000 N   0  0  0  0  0  0  0  0  0  0  0  0
  4  5  1  0
  2  3  1  0
  5  6  2  0
  6  1  1  0
  1  2  2  0
  3  7  1  0
  3  4  2  0
  2  8  1  0
  6  9  1  0
M  END

> <chembl_id>
CHEMBL1650247

> <chembl_pref_name>
None

$$$$

     RDKit          2D

  8  8  0  0  0  0  0  0  0  0999 V2000
    0.7145   -0.4126    0.0000 N   0  0  0  0  0  0  0  0  0  0  0  0
   -0.0000   -0.8251    0.0000 C   0  0  0  0  0  0  0  0  0  0  0  0
   -0.7145   -0.4126    0.0000 C   0  0  0  0  0  0  0  0  0  0  0  0
   -0.7145    0.4124    0.0000 N   0  0  0  0  0  0  0  0  0  0  0  0
    0.0000    0.8249    0.0000 C   0  0  0  0  0  0  0  0  0  0  0  0
    0.7145    0.4124    0.0000 C   0  0  0  0  0  0  0  0  0  0  0  0
   -0.0000   -1.6501    0.0000 C   0  0  0  0  0  0  0  0  0  0  0  0
   -0.0000    1.6499    0.0000 C   0  0  0  0  0  0  0  0  0  0  0  0
  2  1  2  0
  6  1  1  0
  2  3  1  0
  2  7  1  0
  3  4  2  0
  5  4  1  0
  5  6  2  0
  5  8  1  0
M  END

> <chembl_id>
CHEMBL94709

> <chembl_pref_name>
None

$$$$

     RDKit          2D

 10 10  0  0  0  0  0  0  0  0999 V2000
    2.7942   -0.4136    0.0000 C   0  0  0  0  0  0  0  0  0  0  0  0
    1.7994   -0.3130    0.0000 C   0  0  0  0  0  0  0  0  0  0  0  0
    1.1332   -1.0588    0.0000 C   0  0  0  0  0  0  0  0  0  0  0  0
    0.2180   -0.6556    0.0000 C   0  0  0  0  0  0  0  0  0  0  0  0
   -0.6460   -1.1590    0.0000 C   0  0  0  0  0  0  0  0  0  0  0  0
   -1.5140   -0.6626    0.0000 C   0  0  0  0  0  0  0  0  0  0  0  0
   -2.3820   -0.1660    0.0000 N   0  0  0  0  0  0  0  0  0  0  0  0
    0.3186    0.3394    0.0000 N   0  0  0  0  0  0  0  0  0  0  0  0
    1.2960    0.5510    0.0000 N   0  0  0  0  0  0  0  0  0  0  0  0
    1.6990    1.4662    0.0000 C   0  0  0  0  0  0  0  0  0  0  0  0
  1  2  1  0
  2  3  2  0
  3  4  1  0
  4  5  1  0
  5  6  1  0
  6  7  3  0
  4  8  2  0
  8  9  1  0
  9 10  1  0
  9  2  1  0
M  END

> <chembl_id>
CHEMBL4552190

> <chembl_pref_name>
None

$$$$

     RDKit          2D

  9  9  0  0  0  0  0  0  0  0999 V2000
    0.7500   -1.0323    0.0000 C   0  0  0  0  0  0  0  0  0  0  0  0
    1.2135    0.3943    0.0000 C   0  0  0  0  0  0  0  0  0  0  0  0
    0.0000    1.2760    0.0000 N   0  0  0  0  0  0  0  0  0  0  0  0
   -1.2135    0.3943    0.0000 O   0  0  0  0  0  0  0  0  0  0  0  0
   -0.7500   -1.0323    0.0000 N   0  0  0  0  0  0  0  0  0  0  0  0
    1.6281   -2.2462    0.0000 C   0  0  0  0  0  0  0  0  0  0  0  0
    2.8218   -2.1229    0.0000 N   0  0  0  0  0  0  0  0  0  0  0  0
    1.1385   -3.3418    0.0000 O   0  0  0  0  0  0  0  0  0  0  0  0
    2.3548    0.7651    0.0000 N   0  0  0  0  0  0  0  0  0  0  0  0
  1  2  1  0
  2  3  2  0
  3  4  1  0
  4  5  1  0
  5  1  2  0
  1  6  1  0
  6  7  1  0
  6  8  2  0
  2  9  1  0
M  END

> <chembl_id>
CHEMBL3589016

> <chembl_pref_name>
None

$$$$

     RDKit          2D

  9  9  0  0  0  0  0  0  0  0999 V2000
    1.2990   -0.7500    0.0000 N   0  0  0  0  0  0  0  0  0  0  0  0
    1.2990    0.7500    0.0000 C   0  0  0  0  0  0  0  0  0  0  0  0
    0.0000    1.5000    0.0000 N   0  0  0  0  0  0  0  0  0  0  0  0
   -1.2990    0.7500    0.0000 C   0  0  0  0  0  0  0  0  0  0  0  0
   -1.2990   -0.7500    0.0000 C   0  0  0  0  0  0  0  0  0  0  0  0
    0.0000   -1.5000    0.0000 C   0  0  0  0  0  0  0  0  0  0  0  0
    2.5972    1.5031    0.0000 N   0  0  0  0  0  0  0  0  0  0  0  0
    2.5955    2.7031    0.0000 N   0  0  0  0  0  0  0  0  0  0  0  0
   -2.3383   -1.3500    0.0000 F   0  0  0  0  0  0  0  0  0  0  0  0
  1  2  2  0
  2  3  1  0
  3  4  2  0
  4  5  1  0
  5  6  2  0
  6  1  1  0
  2  7  1  0
  7  8  1  0
  5  9  1  0
M  END

> <chembl_id>
CHEMBL3793758

> <chembl_pref_name>
None

$$$$
 
     RDKit          2D

  8  8  0  0  0  0  0  0  0  0999 V2000
   22.0724   -3.8672    0.0000 N   0  0  0  0  0  0  0  0  0  0  0  0
   22.8896   -3.8672    0.0000 C   0  0  0  0  0  0  0  0  0  0  0  0
   23.1439   -3.0905    0.0000 N   0  0  0  0  0  0  0  0  0  0  0  0
   22.4810   -2.6084    0.0000 C   0  0  0  0  0  0  0  0  0  0  0  0
   21.8222   -3.0905    0.0000 C   0  0  0  0  0  0  0  0  0  0  0  0
   23.9215   -2.8391    0.0000 C   0  0  0  0  0  0  0  0  0  0  0  0
   24.5280   -3.3867    0.0000 C   0  0  0  0  0  0  0  0  0  0  0  0
   25.1311   -3.9313    0.0000 C   0  0  0  0  0  0  0  0  0  0  0  0
  1  2  2  0
  2  3  1  0
  3  4  1  0
  4  5  2  0
  5  1  1  0
  3  6  1  0
  6  7  1  0
  7  8  3  0
M  END

> <chembl_id>
CHEMBL4516003

> <chembl_pref_name>
None

$$$$

     RDKit          2D

 10 10  0  0  0  0  0  0  0  0999 V2000
   -0.7030    1.9274    0.0000 O   0  0  0  0  0  0  0  0  0  0  0  0
    0.6790    0.2050    0.0000 N   0  0  0  0  0  0  0  0  0  0  0  0
    0.4240   -0.5796    0.0000 N   0  0  0  0  0  0  0  0  0  0  0  0
    0.7260    1.9274    0.0000 N   0  0  0  0  0  0  0  0  0  0  0  0
    0.7260    2.7524    0.0000 N   0  0  0  0  0  0  0  0  0  0  0  0
    0.0115    0.6899    0.0000 C   0  0  0  0  0  0  0  0  0  0  0  0
    0.0115    1.5149    0.0000 C   0  0  0  0  0  0  0  0  0  0  0  0
   -0.6559    0.2050    0.0000 C   0  0  0  0  0  0  0  0  0  0  0  0
   -0.4010   -0.5796    0.0000 C   0  0  0  0  0  0  0  0  0  0  0  0
   -0.8859   -1.2470    0.0000 C   0  0  0  0  0  0  0  0  0  0  0  0
  1  7  2  0
  2  3  1  0
  2  6  1  0
  3  9  2  0
  4  5  1  0
  4  7  1  0
  6  7  1  0
  6  8  2  0
  8  9  1  0
  9 10  1  0
M  END

> <chembl_id>
CHEMBL1610192

> <chembl_pref_name>
None

$$$$

     RDKit          2D

 11 11  0  0  0  0  0  0  0  0999 V2000
   -1.8092  -16.7697    0.0000 C   0  0  0  0  0  0  0  0  0  0  0  0
   -1.8103  -17.5967    0.0000 C   0  0  0  0  0  0  0  0  0  0  0  0
   -1.0958  -18.0095    0.0000 C   0  0  0  0  0  0  0  0  0  0  0  0
   -0.3796  -17.5963    0.0000 C   0  0  0  0  0  0  0  0  0  0  0  0
   -0.3824  -16.7660    0.0000 C   0  0  0  0  0  0  0  0  0  0  0  0
   -1.0976  -16.3570    0.0000 C   0  0  0  0  0  0  0  0  0  0  0  0
   -2.5235  -16.3574    0.0000 N   0  0  0  0  0  0  0  0  0  0  0  0
   -2.5237  -15.5327    0.0000 C   0  0  0  0  0  0  0  0  0  0  0  0
   -3.2377  -16.7700    0.0000 C   0  0  0  0  0  0  0  0  0  0  0  0
   -3.9520  -16.3578    0.0000 C   0  0  0  0  0  0  0  0  0  0  0  0
   -3.2375  -17.5947    0.0000 O   0  0  0  0  0  0  0  0  0  0  0  0
  5  6  2  0
  6  1  1  0
  1  2  2  0
  1  7  1  0
  3  4  2  0
  7  8  1  0
  7  9  1  0
  4  5  1  0
  9 10  1  0
  2  3  1  0
  9 11  2  0
M  END

> <chembl_id>
CHEMBL481312

> <chembl_pref_name>
None

$$$$

     RDKit          2D

 11 12  0  0  0  0  0  0  0  0999 V2000
    5.7625   -3.1375    0.0000 N   0  0  0  0  0  0  0  0  0  0  0  0
    5.0500   -2.7250    0.0000 C   0  0  0  0  0  0  0  0  0  0  0  0
    5.7667   -1.4917    0.0000 C   0  0  0  0  0  0  0  0  0  0  0  0
    5.0500   -1.9000    0.0000 C   0  0  0  0  0  0  0  0  0  0  0  0
    6.4792   -1.9000    0.0000 C   0  0  0  0  0  0  0  0  0  0  0  0
    6.4792   -2.7167    0.0000 C   0  0  0  0  0  0  0  0  0  0  0  0
    4.3292   -3.1292    0.0000 N   0  0  0  0  0  0  0  0  0  0  0  0
    5.7542   -0.6875    0.0000 C   0  0  0  0  0  0  0  0  0  0  0  0
    7.1750   -1.4875    0.0000 C   0  0  0  0  0  0  0  0  0  0  0  0
    6.4625   -0.2750    0.0000 C   0  0  0  0  0  0  0  0  0  0  0  0
    7.1667   -0.6750    0.0000 C   0  0  0  0  0  0  0  0  0  0  0  0
  2  1  1  0
  3  5  2  0
  4  2  2  0
  5  6  1  0
  6  1  2  0
  7  2  1  0
  8  3  1  0
  9  5  1  0
 10 11  1  0
 11  9  1  0
  4  3  1  0
 10  8  1  0
M  END

> <chembl_id>
CHEMBL60528

> <chembl_pref_name>
None

$$$$
 
     RDKit          2D

 10 11  0  0  0  0  0  0  0  0999 V2000
    3.3425  -17.8234    0.0000 C   0  0  0  0  0  0  0  0  0  0  0  0
    3.3414  -18.6502    0.0000 C   0  0  0  0  0  0  0  0  0  0  0  0
    4.0558  -19.0629    0.0000 C   0  0  0  0  0  0  0  0  0  0  0  0
    4.7718  -18.6498    0.0000 C   0  0  0  0  0  0  0  0  0  0  0  0
    4.7690  -17.8197    0.0000 C   0  0  0  0  0  0  0  0  0  0  0  0
    4.0540  -17.4108    0.0000 C   0  0  0  0  0  0  0  0  0  0  0  0
    5.4801  -17.4011    0.0000 C   0  0  0  0  0  0  0  0  0  0  0  0
    6.2775  -17.6115    0.0000 C   0  0  0  0  0  0  0  0  0  0  0  0
    6.4878  -16.8143    0.0000 O   0  0  0  0  0  0  0  0  0  0  0  0
    5.6906  -16.6039    0.0000 C   0  0  0  0  0  0  0  0  0  0  0  0
  1  2  2  0
  2  3  1  0
  3  4  2  0
  4  5  1  0
  5  6  2  0
  6  1  1  0
  7  8  1  0
  8  9  1  0
  9 10  1  0
 10  7  1  0
  5  7  1  0
M  END

> <chembl_id>
CHEMBL4743494

> <chembl_pref_name>
None

$$$$
 
     RDKit          2D

  8  8  0  0  0  0  0  0  0  0999 V2000
   10.5704  -10.1677    0.0000 C   0  0  0  0  0  0  0  0  0  0  0  0
   10.5692  -10.9949    0.0000 C   0  0  0  0  0  0  0  0  0  0  0  0
   11.2838  -11.4076    0.0000 N   0  0  0  0  0  0  0  0  0  0  0  0
   12.0001  -10.9944    0.0000 C   0  0  0  0  0  0  0  0  0  0  0  0
   11.9972  -10.1641    0.0000 C   0  0  0  0  0  0  0  0  0  0  0  0
   11.2820   -9.7551    0.0000 C   0  0  0  0  0  0  0  0  0  0  0  0
   12.7150  -11.4056    0.0000 Cl  0  0  0  0  0  0  0  0  0  0  0  0
   12.7099   -9.7491    0.0000 N   0  0  0  0  0  0  0  0  0  0  0  0
  1  2  2  0
  2  3  1  0
  3  4  2  0
  4  5  1  0
  5  6  2  0
  6  1  1  0
  4  7  1  0
  5  8  1  0
M  END

> <chembl_id>
CHEMBL4639717

> <chembl_pref_name>
None

$$$$

     RDKit          2D

 11 11  0  0  0  0  0  0  0  0999 V2000
    2.9538    1.8000    0.0000 N   0  0  0  0  0  0  0  0  0  0  0  0
    3.6682   -0.2625    0.0000 C   0  0  0  0  0  0  0  0  0  0  0  0
    3.6682    0.5625    0.0000 C   0  0  0  0  0  0  0  0  0  0  0  0
    4.3827   -0.6750    0.0000 C   0  0  0  0  0  0  0  0  0  0  0  0
    2.9538   -0.6750    0.0000 C   0  0  0  0  0  0  0  0  0  0  0  0
    2.9538    0.9750    0.0000 C   0  0  0  0  0  0  0  0  0  0  0  0
    4.3827   -1.5000    0.0000 C   0  0  0  0  0  0  0  0  0  0  0  0
    2.9538   -1.5000    0.0000 C   0  0  0  0  0  0  0  0  0  0  0  0
    3.6682   -1.9125    0.0000 C   0  0  0  0  0  0  0  0  0  0  0  0
    4.3827    0.9750    0.0000 C   0  0  0  0  0  0  0  0  0  0  0  0
    2.2393    2.2125    0.0000 C   0  0  0  0  0  0  0  0  0  0  0  0
  1  6  1  0
  1 11  1  0
  2  3  1  0
  2  4  2  0
  2  5  1  0
  3  6  1  0
  3 10  1  0
  4  7  1  0
  5  8  2  0
  7  9  2  0
  8  9  1  0
M  END

> <chembl_id>
CHEMBL1622886

> <chembl_pref_name>
PHENPROMETHAMINE

$$$$

     RDKit          2D

 11 12  0  0  0  0  0  0  0  0999 V2000
    0.4917   -4.0500    0.0000 N   0  0  0  0  0  0  0  0  0  0  0  0
    0.6792   -3.4792    0.0000 N   0  0  0  0  0  0  0  0  0  0  0  0
   -0.0833   -4.2375    0.0000 C   0  0  0  0  0  0  0  0  0  0  0  0
    0.8542   -4.5417    0.0000 C   0  0  0  0  0  0  0  0  0  0  0  0
   -0.0833   -4.8417    0.0000 C   0  0  0  0  0  0  0  0  0  0  0  0
    1.2667   -3.3750    0.0000 O   0  0  0  0  0  0  0  0  0  0  0  0
    0.4917   -5.0292    0.0000 C   0  0  0  0  0  0  0  0  0  0  0  0
   -0.6000   -3.9375    0.0000 C   0  0  0  0  0  0  0  0  0  0  0  0
   -0.6000   -5.1417    0.0000 C   0  0  0  0  0  0  0  0  0  0  0  0
   -1.1208   -4.2375    0.0000 C   0  0  0  0  0  0  0  0  0  0  0  0
   -1.1208   -4.8417    0.0000 C   0  0  0  0  0  0  0  0  0  0  0  0
  2  1  1  0
  3  1  1  0
  4  1  1  0
  5  3  1  0
  6  2  2  0
  7  4  1  0
  8  3  2  0
  9  5  2  0
 10  8  1  0
 11 10  2  0
  7  5  1  0
  9 11  1  0
M  END

> <chembl_id>
CHEMBL351284

> <chembl_pref_name>
None

$$$$

     RDKit          2D

  7  7  0  0  0  0  0  0  0  0999 V2000
    0.6665    0.0000    0.0000 O   0  0  0  0  0  0  0  0  0  0  0  0
    2.7317   -0.7840    0.0000 N   0  0  0  0  0  0  0  0  0  0  0  0
    1.3303   -0.4862    0.0000 C   0  0  0  0  0  0  0  0  0  0  0  0
    1.0736   -1.2703    0.0000 C   0  0  0  0  0  0  0  0  0  0  0  0
    0.0000   -0.4862    0.0000 C   0  0  0  0  0  0  0  0  0  0  0  0
    0.2486   -1.2703    0.0000 C   0  0  0  0  0  0  0  0  0  0  0  0
    2.1171   -0.2267    0.0000 C   0  0  0  0  0  0  0  0  0  0  0  0
  1  3  1  0
  1  5  1  0
  2  7  1  0
  3  4  2  0
  3  7  1  0
  4  6  1  0
  5  6  2  0
M  END

> <chembl_id>
CHEMBL3561633

> <chembl_pref_name>
None

$$$$

     RDKit          2D

 10 10  0  0  0  0  0  0  0  0999 V2000
    2.5814   -0.2382    0.0000 C   0  0  0  0  0  0  0  0  0  0  0  0
    1.5870   -0.3440    0.0000 N   0  0  0  0  0  0  0  0  0  0  0  0
    0.9172    0.3984    0.0000 C   0  0  0  0  0  0  0  0  0  0  0  0
    0.0040   -0.0094    0.0000 C   0  0  0  0  0  0  0  0  0  0  0  0
   -0.8626    0.4896    0.0000 C   0  0  0  0  0  0  0  0  0  0  0  0
   -0.8638    1.4896    0.0000 O   0  0  0  0  0  0  0  0  0  0  0  0
   -1.7278   -0.0112    0.0000 C   0  0  0  0  0  0  0  0  0  0  0  0
   -2.5944    0.4878    0.0000 N   0  0  0  0  0  0  0  0  0  0  0  0
    0.1098   -1.0036    0.0000 C   0  0  0  0  0  0  0  0  0  0  0  0
    1.0880   -1.2106    0.0000 N   0  0  0  0  0  0  0  0  0  0  0  0
  1  2  1  0
  2  3  1  0
  3  4  2  0
  4  5  1  0
  5  6  1  0
  5  7  1  0
  7  8  1  0
  4  9  1  0
  9 10  2  0
 10  2  1  0
M  END

> <chembl_id>
CHEMBL4570948

> <chembl_pref_name>
None

$$$$
 
     RDKit          2D

  9  9  0  0  0  0  0  0  0  0999 V2000
   11.6084   -6.9397    0.0000 C   0  0  0  0  0  0  0  0  0  0  0  0
   10.9421   -6.4551    0.0000 C   0  0  0  0  0  0  0  0  0  0  0  0
   11.1940   -5.6712    0.0000 S   0  0  0  0  0  0  0  0  0  0  0  0
   12.0188   -5.6712    0.0000 C   0  0  0  0  0  0  0  0  0  0  0  0
   12.2748   -6.4551    0.0000 N   0  0  0  0  0  0  0  0  0  0  0  0
   12.4334   -4.9540    0.0000 C   0  0  0  0  0  0  0  0  0  0  0  0
   12.0188   -4.2411    0.0000 O   0  0  0  0  0  0  0  0  0  0  0  0
   13.2586   -4.9540    0.0000 O   0  0  0  0  0  0  0  0  0  0  0  0
   10.1447   -6.6686    0.0000 C   0  0  0  0  0  0  0  0  0  0  0  0
  1  2  2  0
  2  3  1  0
  3  4  1  0
  4  5  2  0
  5  1  1  0
  4  6  1  0
  6  7  2  0
  6  8  1  0
  2  9  1  0
M  END

> <chembl_id>
CHEMBL4559540

> <chembl_pref_name>
None

$$$$

     RDKit          2D

 10 10  0  0  0  0  0  0  0  0999 V2000
    2.8398   -0.0710    0.0000 C   0  0  0  0  0  0  0  0  0  0  0  0
    1.8450    0.0296    0.0000 C   0  0  0  0  0  0  0  0  0  0  0  0
    1.1786   -0.7162    0.0000 N   0  0  0  0  0  0  0  0  0  0  0  0
    0.2636   -0.3132    0.0000 C   0  0  0  0  0  0  0  0  0  0  0  0
   -0.6004   -0.8166    0.0000 C   0  0  0  0  0  0  0  0  0  0  0  0
   -1.4684   -0.3200    0.0000 C   0  0  0  0  0  0  0  0  0  0  0  0
   -2.3326   -0.8234    0.0000 N   0  0  0  0  0  0  0  0  0  0  0  0
    0.3642    0.6818    0.0000 C   0  0  0  0  0  0  0  0  0  0  0  0
   -0.3816    1.3480    0.0000 C   0  0  0  0  0  0  0  0  0  0  0  0
    1.3414    0.8936    0.0000 O   0  0  0  0  0  0  0  0  0  0  0  0
  1  2  1  0
  2  3  2  0
  3  4  1  0
  4  5  1  0
  5  6  1  0
  6  7  1  0
  4  8  2  0
  8  9  1  0
  8 10  1  0
 10  2  1  0
M  END

> <chembl_id>
CHEMBL4554959

> <chembl_pref_name>
None

$$$$

     RDKit          2D

  5  5  0  0  0  0  0  0  0  0999 V2000
    0.6674    0.2277    0.0000 N   0  0  0  0  0  0  0  0  0  0  0  0
    0.4125   -0.5569    0.0000 C   0  0  0  0  0  0  0  0  0  0  0  0
   -0.4125   -0.5569    0.0000 N   0  0  0  0  0  0  0  0  0  0  0  0
   -0.6674    0.2277    0.0000 C   0  0  0  0  0  0  0  0  0  0  0  0
   -0.0000    0.7126    0.0000 C   0  0  0  0  0  0  0  0  0  0  0  0
  2  1  1  0
  5  1  1  0
  2  3  2  0
  4  3  1  0
  4  5  2  0
M  END

> <chembl_id>
CHEMBL540

> <chembl_pref_name>
IMIDAZOLE

$$$$

     RDKit          2D

 11 11  0  0  0  0  0  0  0  0999 V2000
    5.8417   -2.7292    0.0000 C   0  0  0  0  0  0  0  0  0  0  0  0
    3.8375   -2.6500    0.0000 N   0  0  0  0  0  0  0  0  0  0  0  0
    4.3375   -3.0917    0.0000 N   0  0  0  0  0  0  0  0  0  0  0  0
    4.8000   -2.7167    0.0000 C   0  0  0  0  0  0  0  0  0  0  0  0
    6.8917   -2.1417    0.0000 N   0  0  0  0  0  0  0  0  0  0  0  0
    5.8292   -3.9375    0.0000 N   0  0  0  0  0  0  0  0  0  0  0  0
    6.3667   -2.4375    0.0000 C   0  0  0  0  0  0  0  0  0  0  0  0
    5.8375   -3.3375    0.0000 C   0  0  0  0  0  0  0  0  0  0  0  0
    5.3250   -2.4250    0.0000 C   0  0  0  0  0  0  0  0  0  0  0  0
    4.6500   -2.1292    0.0000 C   0  0  0  0  0  0  0  0  0  0  0  0
    4.0625   -2.0917    0.0000 C   0  0  0  0  0  0  0  0  0  0  0  0
  2  3  1  0
  3  4  2  0
  4  9  1  0
  5  7  3  0
  6  8  3  0
  7  1  1  0
  8  1  1  0
  9  1  2  0
 10  4  1  0
 11 10  2  0
  2 11  1  0
M  END

> <chembl_id>
CHEMBL298810

> <chembl_pref_name>
None

$$$$

     RDKit          2D

 10 11  0  0  0  0  0  0  0  0999 V2000
    5.0501   -0.8419    0.0000 N   0  0  0  0  0  0  0  0  0  0  0  0
    4.0197   -1.4569    0.0000 C   0  0  0  0  0  0  0  0  0  0  0  0
    3.2676   -2.7548    0.0000 C   0  0  0  0  0  0  0  0  0  0  0  0
    2.5987   -1.5004    0.0000 C   0  0  0  0  0  0  0  0  0  0  0  0
    1.2990   -0.7500    0.0000 C   0  0  0  0  0  0  0  0  0  0  0  0
    1.2990    0.7500    0.0000 C   0  0  0  0  0  0  0  0  0  0  0  0
    0.0000    1.5000    0.0000 C   0  0  0  0  0  0  0  0  0  0  0  0
   -1.2990    0.7500    0.0000 C   0  0  0  0  0  0  0  0  0  0  0  0
   -1.2990   -0.7500    0.0000 N   0  0  0  0  0  0  0  0  0  0  0  0
    0.0000   -1.5000    0.0000 C   0  0  0  0  0  0  0  0  0  0  0  0
  1  2  1  0
  2  3  1  0
  3  4  1  0
  4  2  1  0
  4  5  1  0
  5  6  2  0
  6  7  1  0
  7  8  2  0
  8  9  1  0
  9 10  2  0
 10  5  1  0
M  END

> <chembl_id>
CHEMBL3640763

> <chembl_pref_name>
None

$$$$

     RDKit          2D

  9  9  0  0  0  0  0  0  0  0999 V2000
    1.2990   -0.7500    0.0000 C   0  0  0  0  0  0  0  0  0  0  0  0
    1.2990    0.7500    0.0000 C   0  0  0  0  0  0  0  0  0  0  0  0
    0.0000    1.5000    0.0000 C   0  0  0  0  0  0  0  0  0  0  0  0
   -1.2990    0.7500    0.0000 C   0  0  0  0  0  0  0  0  0  0  0  0
   -1.2990   -0.7500    0.0000 C   0  0  0  0  0  0  0  0  0  0  0  0
    0.0000   -1.5000    0.0000 C   0  0  0  0  0  0  0  0  0  0  0  0
    2.5973   -1.5031    0.0000 C   0  0  0  0  0  0  0  0  0  0  0  0
    2.5951   -3.0039    0.0000 C   0  0  0  0  0  0  0  0  0  0  0  0
    3.6331   -3.6060    0.0000 N   0  0  0  0  0  0  0  0  0  0  0  0
  1  2  2  0
  1  6  1  0
  1  7  1  0
  3  2  1  0
  4  3  2  0
  5  4  1  0
  6  5  2  0
  8  7  1  0
  8  9  1  0
M  END

> <chembl_id>
CHEMBL610

> <chembl_pref_name>
PHENETHYLAMINE

$$$$

     RDKit          2D

  9  9  0  0  0  0  0  0  0  0999 V2000
   10.0604  -17.0904    0.0000 N   0  0  0  0  0  0  0  0  0  0  0  0
   10.7762  -16.6779    0.0000 C   0  0  0  0  0  0  0  0  0  0  0  0
   11.4920  -17.0904    0.0000 C   0  0  0  0  0  0  0  0  0  0  0  0
   12.2037  -16.6779    0.0000 C   0  0  0  0  0  0  0  0  0  0  0  0
   12.2926  -15.8557    0.0000 C   0  0  0  0  0  0  0  0  0  0  0  0
   13.0986  -15.6833    0.0000 N   0  0  0  0  0  0  0  0  0  0  0  0
   13.5110  -16.3991    0.0000 C   0  0  0  0  0  0  0  0  0  0  0  0
   12.9580  -17.0113    0.0000 N   0  0  0  0  0  0  0  0  0  0  0  0
   10.7762  -15.8530    0.0000 C   0  0  0  0  0  0  0  0  0  0  0  0
  1  2  1  0
  2  3  1  0
  3  4  1  0
  4  5  2  0
  5  6  1  0
  6  7  2  0
  7  8  1  0
  4  8  1  0
  2  9  1  0
M  END

> <chembl_id>
CHEMBL116655

> <chembl_pref_name>
None

$$$$

     RDKit          2D

  9  9  0  0  0  0  0  0  0  0999 V2000
    1.2990   -0.7500    0.0000 C   0  0  0  0  0  0  0  0  0  0  0  0
    1.2990    0.7500    0.0000 C   0  0  0  0  0  0  0  0  0  0  0  0
    0.0000    1.5000    0.0000 N   0  0  0  0  0  0  0  0  0  0  0  0
   -1.2990    0.7500    0.0000 C   0  0  0  0  0  0  0  0  0  0  0  0
   -1.2990   -0.7500    0.0000 C   0  0  0  0  0  0  0  0  0  0  0  0
    0.0000   -1.5000    0.0000 C   0  0  0  0  0  0  0  0  0  0  0  0
    0.0000   -2.7000    0.0000 O   0  0  0  0  0  0  0  0  0  0  0  0
   -2.3383   -1.3500    0.0000 O   0  0  0  0  0  0  0  0  0  0  0  0
    2.3383    1.3500    0.0000 C   0  0  0  0  0  0  0  0  0  0  0  0
  1  2  2  0
  1  6  1  0
  2  3  1  0
  3  4  1  0
  4  5  2  0
  5  6  1  0
  6  7  2  0
  5  8  1  0
  2  9  1  0
M  END

> <chembl_id>
CHEMBL3786879

> <chembl_pref_name>
None

$$$$

     RDKit          2D

 10 10  0  0  0  0  0  0  0  0999 V2000
    5.1277   -0.2291    0.0000 C   0  0  0  0  0  0  0  0  0  0  0  0
    5.1266   -1.0565    0.0000 C   0  0  0  0  0  0  0  0  0  0  0  0
    5.8414   -1.4694    0.0000 N   0  0  0  0  0  0  0  0  0  0  0  0
    6.5578   -1.0560    0.0000 C   0  0  0  0  0  0  0  0  0  0  0  0
    6.5550   -0.2255    0.0000 C   0  0  0  0  0  0  0  0  0  0  0  0
    5.8396    0.1836    0.0000 C   0  0  0  0  0  0  0  0  0  0  0  0
    7.2730   -1.4674    0.0000 N   0  0  0  0  0  0  0  0  0  0  0  0
    7.9868   -1.0538    0.0000 O   0  0  0  0  0  0  0  0  0  0  0  0
    4.4118   -1.4684    0.0000 C   0  0  0  0  0  0  0  0  0  0  0  0
    3.6976   -1.0554    0.0000 C   0  0  0  0  0  0  0  0  0  0  0  0
  2  3  1  0
  5  6  2  0
  6  1  1  0
  1  2  2  0
  4  7  1  0
  3  4  2  0
  7  8  2  0
  2  9  1  0
  4  5  1  0
  9 10  1  0
M  END

> <chembl_id>
CHEMBL1916780

> <chembl_pref_name>
None

$$$$

     RDKit          2D

  8  8  0  0  0  0  0  0  0  0999 V2000
    0.0516   -1.7236    0.0000 S   0  0  0  0  0  0  0  0  0  0  0  0
    1.4335   -0.0011    0.0000 O   0  0  0  0  0  0  0  0  0  0  0  0
    1.3865   -1.7236    0.0000 N   0  0  0  0  0  0  0  0  0  0  0  0
    0.7190   -1.2386    0.0000 C   0  0  0  0  0  0  0  0  0  0  0  0
    0.7190   -0.4136    0.0000 C   0  0  0  0  0  0  0  0  0  0  0  0
    0.3065   -2.5082    0.0000 C   0  0  0  0  0  0  0  0  0  0  0  0
    1.1315   -2.5082    0.0000 C   0  0  0  0  0  0  0  0  0  0  0  0
    0.0046   -0.0011    0.0000 C   0  0  0  0  0  0  0  0  0  0  0  0
  1  4  1  0
  1  6  1  0
  2  5  2  0
  3  4  2  0
  3  7  1  0
  4  5  1  0
  5  8  1  0
  6  7  2  0
M  END

> <chembl_id>
CHEMBL1589555

> <chembl_pref_name>
None

$$$$

     RDKit          2D

 11 12  0  0  1  0  0  0  0  0999 V2000
    3.7250   -3.5792    0.0000 C   0  0  0  0  0  0  0  0  0  0  0  0
    3.7250   -4.1792    0.0000 C   0  0  0  0  0  0  0  0  0  0  0  0
    4.2417   -3.2792    0.0000 C   0  0  0  0  0  0  0  0  0  0  0  0
    4.2417   -2.6792    0.0000 N   0  0  0  0  0  0  0  0  0  0  0  0
    4.7667   -4.1792    0.0000 C   0  0  0  0  0  0  0  0  0  0  0  0
    3.2042   -3.2792    0.0000 C   0  0  0  0  0  0  0  0  0  0  0  0
    4.2417   -4.4792    0.0000 C   0  0  0  0  0  0  0  0  0  0  0  0
    4.7667   -3.5792    0.0000 C   0  0  0  0  0  0  0  0  0  0  0  0
    3.2042   -4.4792    0.0000 C   0  0  0  0  0  0  0  0  0  0  0  0
    2.6917   -3.5792    0.0000 C   0  0  0  0  0  0  0  0  0  0  0  0
    2.6917   -4.1792    0.0000 C   0  0  0  0  0  0  0  0  0  0  0  0
  2  1  2  0
  3  1  1  0
  3  4  1  6
  5  8  1  0
  6  1  1  0
  7  2  1  0
  8  3  1  0
  9  2  1  0
 10  6  2  0
 11 10  1  0
  5  7  1  0
 11  9  2  0
M  END

> <chembl_id>
CHEMBL289966

> <chembl_pref_name>
None

$$$$

     RDKit          2D

 10 10  0  0  0  0  0  0  0  0999 V2000
   -0.0043   -0.4161    0.0000 C   0  0  0  0  0  0  0  0  0  0  0  0
   -0.7188   -0.0036    0.0000 C   0  0  0  0  0  0  0  0  0  0  0  0
   -0.7188    0.8214    0.0000 C   0  0  0  0  0  0  0  0  0  0  0  0
   -0.0043    1.2339    0.0000 C   0  0  0  0  0  0  0  0  0  0  0  0
    0.7102    0.8214    0.0000 C   0  0  0  0  0  0  0  0  0  0  0  0
    0.7102   -0.0036    0.0000 C   0  0  0  0  0  0  0  0  0  0  0  0
   -0.0043   -1.2411    0.0000 C   0  0  0  0  0  0  0  0  0  0  0  0
    0.7102   -1.6536    0.0000 O   0  0  0  0  0  0  0  0  0  0  0  0
   -0.7188   -1.6536    0.0000 N   0  0  0  0  0  0  0  0  0  0  0  0
   -0.0043    2.0589    0.0000 O   0  0  0  0  0  0  0  0  0  0  0  0
  1  2  2  0
  1  6  1  0
  1  7  1  0
  2  3  1  0
  3  4  2  0
  4  5  1  0
  4 10  1  0
  5  6  2  0
  7  8  2  0
  7  9  1  0
M  END

> <chembl_id>
CHEMBL123617

> <chembl_pref_name>
None

$$$$

     RDKit          2D

  9  9  0  0  0  0  0  0  0  0999 V2000
    2.1480   -0.8250    0.0000 N   0  0  0  0  0  0  0  0  0  0  0  0
    0.7160    0.0000    0.0000 N   0  0  0  0  0  0  0  0  0  0  0  0
    1.4320   -1.2437    0.0000 C   0  0  0  0  0  0  0  0  0  0  0  0
    0.7160   -0.8250    0.0000 C   0  0  0  0  0  0  0  0  0  0  0  0
    1.4320   -2.0687    0.0000 C   0  0  0  0  0  0  0  0  0  0  0  0
    0.0000   -1.2437    0.0000 C   0  0  0  0  0  0  0  0  0  0  0  0
    0.7160   -2.4775    0.0000 C   0  0  0  0  0  0  0  0  0  0  0  0
    0.0000   -2.0687    0.0000 C   0  0  0  0  0  0  0  0  0  0  0  0
    2.1480   -2.4775    0.0000 C   0  0  0  0  0  0  0  0  0  0  0  0
  1  3  1  0
  2  4  1  0
  3  4  1  0
  3  5  2  0
  4  6  2  0
  5  7  1  0
  5  9  1  0
  6  8  1  0
  7  8  2  0
M  END

> <chembl_id>
CHEMBL3183504

> <chembl_pref_name>
None

$$$$

     RDKit          2D

 10 10  0  0  0  0  0  0  0  0999 V2000
    4.2745   -0.4232    0.0000 O   0  0  0  0  0  0  0  0  0  0  0  0
    1.4362   -0.4232    0.0000 C   0  0  0  0  0  0  0  0  0  0  0  0
    0.7181   -0.0085    0.0000 C   0  0  0  0  0  0  0  0  0  0  0  0
    1.4234   -1.2268    0.0000 C   0  0  0  0  0  0  0  0  0  0  0  0
    2.1329   -0.0085    0.0000 C   0  0  0  0  0  0  0  0  0  0  0  0
    0.0000   -0.4232    0.0000 C   0  0  0  0  0  0  0  0  0  0  0  0
    0.7096   -1.6499    0.0000 C   0  0  0  0  0  0  0  0  0  0  0  0
    2.8383   -0.4232    0.0000 C   0  0  0  0  0  0  0  0  0  0  0  0
    0.0000   -1.2482    0.0000 C   0  0  0  0  0  0  0  0  0  0  0  0
    3.5564    0.0000    0.0000 C   0  0  0  0  0  0  0  0  0  0  0  0
  1 10  1  0
  2  3  2  0
  2  4  1  0
  2  5  1  0
  3  6  1  0
  4  7  2  0
  5  8  2  3
  6  9  2  0
  7  9  1  0
  8 10  1  0
M  END

> <chembl_id>
CHEMBL3183153

> <chembl_pref_name>
None

$$$$

     RDKit          2D

  9  9  0  0  0  0  0  0  0  0999 V2000
    1.2990   -0.7500    0.0000 C   0  0  0  0  0  0  0  0  0  0  0  0
    1.2990    0.7500    0.0000 C   0  0  0  0  0  0  0  0  0  0  0  0
    0.0000    1.5000    0.0000 N   0  0  0  0  0  0  0  0  0  0  0  0
   -1.2990    0.7500    0.0000 N   0  0  0  0  0  0  0  0  0  0  0  0
   -1.2990   -0.7500    0.0000 C   0  0  0  0  0  0  0  0  0  0  0  0
    0.0000   -1.5000    0.0000 C   0  0  0  0  0  0  0  0  0  0  0  0
    0.0000   -2.7000    0.0000 O   0  0  0  0  0  0  0  0  0  0  0  0
    0.0000    2.7000    0.0000 C   0  0  0  0  0  0  0  0  0  0  0  0
    2.3383   -1.3500    0.0000 O   0  0  0  0  0  0  0  0  0  0  0  0
  1  2  2  0
  1  6  1  0
  2  3  1  0
  3  4  1  0
  4  5  2  0
  5  6  1  0
  6  7  2  0
  3  8  1  0
  1  9  1  0
M  END

> <chembl_id>
CHEMBL3786223

> <chembl_pref_name>
None

$$$$

     RDKit          2D

 10 10  0  0  0  0  0  0  0  0999 V2000
    2.3383   -1.3500    0.0000 N   0  0  0  0  0  0  0  0  0  0  0  0
    1.2990   -0.7500    0.0000 C   0  0  0  0  0  0  0  0  0  0  0  0
    1.2990    0.7500    0.0000 C   0  0  0  0  0  0  0  0  0  0  0  0
    0.0000    1.5000    0.0000 C   0  0  0  0  0  0  0  0  0  0  0  0
   -1.2990    0.7500    0.0000 N   0  0  0  0  0  0  0  0  0  0  0  0
   -1.2990   -0.7500    0.0000 C   0  0  0  0  0  0  0  0  0  0  0  0
    0.0000   -1.5000    0.0000 C   0  0  0  0  0  0  0  0  0  0  0  0
    2.5972    1.5031    0.0000 C   0  0  0  0  0  0  0  0  0  0  0  0
    3.6375    0.9049    0.0000 O   0  0  0  0  0  0  0  0  0  0  0  0
    2.5955    2.7031    0.0000 O   0  0  0  0  0  0  0  0  0  0  0  0
  1  2  1  0
  2  3  2  0
  3  4  1  0
  4  5  2  0
  5  6  1  0
  6  7  2  0
  2  7  1  0
  3  8  1  0
  8  9  1  0
  8 10  2  0
M  END

> <chembl_id>
CHEMBL3617320

> <chembl_pref_name>
None

$$$$

     RDKit          2D

 10 10  0  0  0  0  0  0  0  0999 V2000
   24.4648   -3.9373    0.0000 C   0  0  0  0  0  0  0  0  0  0  0  0
   24.4636   -4.7569    0.0000 C   0  0  0  0  0  0  0  0  0  0  0  0
   25.1717   -5.1658    0.0000 C   0  0  0  0  0  0  0  0  0  0  0  0
   25.8814   -4.7564    0.0000 C   0  0  0  0  0  0  0  0  0  0  0  0
   25.8785   -3.9337    0.0000 C   0  0  0  0  0  0  0  0  0  0  0  0
   25.1699   -3.5285    0.0000 C   0  0  0  0  0  0  0  0  0  0  0  0
   25.1675   -2.7113    0.0000 O   0  0  0  0  0  0  0  0  0  0  0  0
   26.5847   -3.5225    0.0000 O   0  0  0  0  0  0  0  0  0  0  0  0
   27.2939   -3.9284    0.0000 C   0  0  0  0  0  0  0  0  0  0  0  0
   25.1715   -5.9830    0.0000 N   0  0  0  0  0  0  0  0  0  0  0  0
  1  2  2  0
  2  3  1  0
  3  4  2  0
  4  5  1  0
  5  6  2  0
  6  1  1  0
  6  7  1  0
  5  8  1  0
  8  9  1  0
  3 10  1  0
M  END

> <chembl_id>
CHEMBL4294643

> <chembl_pref_name>
None

$$$$

     RDKit          2D

 10 10  0  0  0  0  0  0  0  0999 V2000
   16.4040    0.4519    0.0000 C   0  0  0  0  0  0  0  0  0  0  0  0
   17.1189    0.8664    0.0000 C   0  0  0  0  0  0  0  0  0  0  0  0
   17.8340    0.4519    0.0000 C   0  0  0  0  0  0  0  0  0  0  0  0
   18.5490    0.8664    0.0000 O   0  0  0  0  0  0  0  0  0  0  0  0
   17.8340   -0.3731    0.0000 O   0  0  0  0  0  0  0  0  0  0  0  0
   16.4040   -0.3731    0.0000 C   0  0  0  0  0  0  0  0  0  0  0  0
   15.7358   -0.8551    0.0000 N   0  0  0  0  0  0  0  0  0  0  0  0
   15.9936   -1.6400    0.0000 C   0  0  0  0  0  0  0  0  0  0  0  0
   16.8186   -1.6400    0.0000 C   0  0  0  0  0  0  0  0  0  0  0  0
   17.0722   -0.8551    0.0000 C   0  0  0  0  0  0  0  0  0  0  0  0
  2  3  1  0
  1  6  1  0
  9 10  1  0
  1  2  2  0
  7  8  1  0
  3  4  1  0
  3  5  2  0
  6  7  1  0
  8  9  2  0
 10  6  2  0
M  END

> <chembl_id>
CHEMBL228464

> <chembl_pref_name>
None

$$$$

     RDKit          2D

  8  8  0  0  0  0  0  0  0  0999 V2000
    0.4125   -0.7154    0.0000 N   0  0  0  0  0  0  0  0  0  0  0  0
    0.0000    0.0000    0.0000 N   0  0  0  0  0  0  0  0  0  0  0  0
    1.2375   -0.7154    0.0000 C   0  0  0  0  0  0  0  0  0  0  0  0
    1.6471    0.0000    0.0000 C   0  0  0  0  0  0  0  0  0  0  0  0
    1.6471   -1.4279    0.0000 C   0  0  0  0  0  0  0  0  0  0  0  0
    2.4721    0.0000    0.0000 C   0  0  0  0  0  0  0  0  0  0  0  0
    2.4721   -1.4279    0.0000 C   0  0  0  0  0  0  0  0  0  0  0  0
    2.8846   -0.7154    0.0000 C   0  0  0  0  0  0  0  0  0  0  0  0
  1  2  1  0
  1  3  1  0
  3  4  2  0
  3  5  1  0
  4  6  1  0
  5  7  2  0
  6  8  2  0
  7  8  1  0
M  END

> <chembl_id>
CHEMBL456807

> <chembl_pref_name>
PHENYLHYDRAZINE

$$$$

     RDKit          2D

  9  9  0  0  0  0  0  0  0  0999 V2000
   -3.8445  -16.4033    0.0000 C   0  0  0  0  0  0  0  0  0  0  0  0
   -3.1312  -16.8139    0.0000 N   0  0  0  0  0  0  0  0  0  0  0  0
   -2.5174  -16.2663    0.0000 C   0  0  0  0  0  0  0  0  0  0  0  0
   -2.8539  -15.5132    0.0000 C   0  0  0  0  0  0  0  0  0  0  0  0
   -3.6731  -15.5979    0.0000 N   0  0  0  0  0  0  0  0  0  0  0  0
   -2.4384  -14.7984    0.0000 C   0  0  0  0  0  0  0  0  0  0  0  0
   -1.6132  -14.7994    0.0000 C   0  0  0  0  0  0  0  0  0  0  0  0
   -1.2018  -14.0846    0.0000 N   0  0  0  0  0  0  0  0  0  0  0  0
   -1.7103  -16.4381    0.0000 Cl  0  0  0  0  0  0  0  0  0  0  0  0
  4  5  1  0
  5  1  2  0
  1  2  1  0
  4  6  1  0
  6  7  1  0
  2  3  1  0
  7  8  1  0
  3  4  2  0
  3  9  1  0
M  END

> <chembl_id>
CHEMBL1808566

> <chembl_pref_name>
None

$$$$

     RDKit          2D

  9  9  0  0  0  0  0  0  0  0999 V2000
    0.3554    2.5902    0.0000 O   0  0  0  0  0  0  0  0  0  0  0  0
   -0.5116    2.0920    0.0000 C   0  0  0  0  0  0  0  0  0  0  0  0
   -0.5136    1.0920    0.0000 C   0  0  0  0  0  0  0  0  0  0  0  0
    0.3514    0.5904    0.0000 C   0  0  0  0  0  0  0  0  0  0  0  0
    0.3494   -0.4096    0.0000 N   0  0  0  0  0  0  0  0  0  0  0  0
   -0.5176   -0.9080    0.0000 C   0  0  0  0  0  0  0  0  0  0  0  0
   -1.3826   -0.4062    0.0000 C   0  0  0  0  0  0  0  0  0  0  0  0
   -2.2498   -0.9044    0.0000 F   0  0  0  0  0  0  0  0  0  0  0  0
   -1.3806    0.5938    0.0000 C   0  0  0  0  0  0  0  0  0  0  0  0
  1  2  1  0
  2  3  1  0
  3  4  2  0
  4  5  1  0
  5  6  2  0
  6  7  1  0
  7  8  1  0
  7  9  2  0
  9  3  1  0
M  END

> <chembl_id>
CHEMBL4303401

> <chembl_pref_name>
None

$$$$

     RDKit          2D

  9  9  0  0  0  0  0  0  0  0999 V2000
   -3.5830    0.5122    0.0000 C   0  0  0  0  0  0  0  0  0  0  0  0
   -2.7164    0.0132    0.0000 N   0  0  0  0  0  0  0  0  0  0  0  0
   -1.8512    0.5142    0.0000 C   0  0  0  0  0  0  0  0  0  0  0  0
   -0.9846    0.0152    0.0000 C   0  0  0  0  0  0  0  0  0  0  0  0
   -0.8788   -0.9790    0.0000 C   0  0  0  0  0  0  0  0  0  0  0  0
    0.0994   -1.1860    0.0000 N   0  0  0  0  0  0  0  0  0  0  0  0
    0.5984   -0.3194    0.0000 N   0  0  0  0  0  0  0  0  0  0  0  0
   -0.0714    0.4230    0.0000 C   0  0  0  0  0  0  0  0  0  0  0  0
    0.1354    1.4014    0.0000 C   0  0  0  0  0  0  0  0  0  0  0  0
  1  2  1  0
  2  3  1  0
  3  4  1  0
  4  5  2  0
  5  6  1  0
  6  7  1  0
  7  8  2  0
  8  9  1  0
  8  4  1  0
M  END

> <chembl_id>
CHEMBL4542610

> <chembl_pref_name>
None

$$$$

     RDKit          2D

 10 10  0  0  0  0  0  0  0  0999 V2000
    0.7162    2.0708    0.0000 C   0  0  0  0  0  0  0  0  0  0  0  0
   -0.1508    1.5724    0.0000 N   0  0  0  0  0  0  0  0  0  0  0  0
   -0.1528    0.5724    0.0000 C   0  0  0  0  0  0  0  0  0  0  0  0
    0.7122    0.0708    0.0000 C   0  0  0  0  0  0  0  0  0  0  0  0
    0.7102   -0.9292    0.0000 C   0  0  0  0  0  0  0  0  0  0  0  0
   -0.1568   -1.4274    0.0000 C   0  0  0  0  0  0  0  0  0  0  0  0
   -1.0218   -0.9258    0.0000 N   0  0  0  0  0  0  0  0  0  0  0  0
   -1.0198    0.0742    0.0000 C   0  0  0  0  0  0  0  0  0  0  0  0
   -1.8848    0.5760    0.0000 C   0  0  0  0  0  0  0  0  0  0  0  0
   -2.7518    0.0776    0.0000 N   0  0  0  0  0  0  0  0  0  0  0  0
  1  2  1  0
  2  3  1  0
  3  4  2  0
  4  5  1  0
  5  6  2  0
  6  7  1  0
  7  8  2  0
  8  9  1  0
  9 10  1  0
  8  3  1  0
M  END

> <chembl_id>
CHEMBL4566085

> <chembl_pref_name>
None

$$$$

     RDKit          2D

  9  9  0  0  0  0  0  0  0  0999 V2000
    5.3917   -2.2125    0.0000 N   0  0  0  0  0  0  0  0  0  0  0  0
    5.3917   -3.0375    0.0000 C   0  0  0  0  0  0  0  0  0  0  0  0
    5.3917   -3.8625    0.0000 C   0  0  0  0  0  0  0  0  0  0  0  0
    4.6792   -4.2792    0.0000 C   0  0  0  0  0  0  0  0  0  0  0  0
    4.6792   -5.1042    0.0000 C   0  0  0  0  0  0  0  0  0  0  0  0
    3.9667   -5.5167    0.0000 N   0  0  0  0  0  0  0  0  0  0  0  0
    6.1042   -5.1042    0.0000 C   0  0  0  0  0  0  0  0  0  0  0  0
    6.1042   -4.2792    0.0000 C   0  0  0  0  0  0  0  0  0  0  0  0
    5.3917   -5.5125    0.0000 C   0  0  0  0  0  0  0  0  0  0  0  0
  2  1  3  0
  3  2  1  0
  4  3  2  0
  5  4  1  0
  6  5  1  0
  7  8  2  0
  8  3  1  0
  9  7  1  0
  9  5  2  0
M  END

> <chembl_id>
CHEMBL326475

> <chembl_pref_name>
None

$$$$

     RDKit          2D

 11 12  0  0  0  0  0  0  0  0999 V2000
   16.2015    0.4280    0.0000 C   0  0  0  0  0  0  0  0  0  0  0  0
   16.2003   -0.3970    0.0000 C   0  0  0  0  0  0  0  0  0  0  0  0
   16.9130   -0.8086    0.0000 C   0  0  0  0  0  0  0  0  0  0  0  0
   16.9112    0.8396    0.0000 C   0  0  0  0  0  0  0  0  0  0  0  0
   17.6245    0.4315    0.0000 C   0  0  0  0  0  0  0  0  0  0  0  0
   17.6233   -0.3990    0.0000 C   0  0  0  0  0  0  0  0  0  0  0  0
   18.3381   -0.8131    0.0000 C   0  0  0  0  0  0  0  0  0  0  0  0
   19.0587   -0.4011    0.0000 C   0  0  0  0  0  0  0  0  0  0  0  0
   19.0599    0.4295    0.0000 N   0  0  0  0  0  0  0  0  0  0  0  0
   18.3405    0.8481    0.0000 C   0  0  0  0  0  0  0  0  0  0  0  0
   19.7700   -0.8144    0.0000 O   0  0  0  0  0  0  0  0  0  0  0  0
  2  3  1  0
  3  6  2  0
  1  2  2  0
  5  4  2  0
  4  1  1  0
  5 10  1  0
  6  7  1  0
  7  8  1  0
  8  9  1  0
  9 10  1  0
  5  6  1  0
  8 11  2  0
M  END

> <chembl_id>
CHEMBL1210771

> <chembl_pref_name>
None

$$$$

     RDKit          2D

 10 10  0  0  0  0  0  0  0  0999 V2000
    0.3570   -2.6676    0.0000 C   0  0  0  0  0  0  0  0  0  0  0  0
   -0.5100   -2.1694    0.0000 O   0  0  0  0  0  0  0  0  0  0  0  0
   -0.5120   -1.1694    0.0000 C   0  0  0  0  0  0  0  0  0  0  0  0
    0.3530   -0.6676    0.0000 N   0  0  0  0  0  0  0  0  0  0  0  0
    0.3510    0.3322    0.0000 C   0  0  0  0  0  0  0  0  0  0  0  0
   -0.5162    0.8306    0.0000 C   0  0  0  0  0  0  0  0  0  0  0  0
   -0.5182    1.8306    0.0000 C   0  0  0  0  0  0  0  0  0  0  0  0
   -1.3812    0.3288    0.0000 C   0  0  0  0  0  0  0  0  0  0  0  0
   -1.3792   -0.6712    0.0000 C   0  0  0  0  0  0  0  0  0  0  0  0
   -2.2442   -1.1728    0.0000 N   0  0  0  0  0  0  0  0  0  0  0  0
  1  2  1  0
  2  3  1  0
  3  4  2  0
  4  5  1  0
  5  6  2  0
  6  7  1  0
  6  8  1  0
  8  9  2  0
  9 10  1  0
  9  3  1  0
M  END

> <chembl_id>
CHEMBL4577398

> <chembl_pref_name>
None

$$$$

     RDKit          2D

  8  8  0  0  0  0  0  0  0  0999 V2000
   -1.7408    0.0484    0.0000 C   0  0  0  0  0  0  0  0  0  0  0  0
   -0.8728    0.5450    0.0000 C   0  0  0  0  0  0  0  0  0  0  0  0
   -0.8688    1.5448    0.0000 N   0  0  0  0  0  0  0  0  0  0  0  0
   -0.0088    0.0416    0.0000 C   0  0  0  0  0  0  0  0  0  0  0  0
    0.9064    0.4446    0.0000 C   0  0  0  0  0  0  0  0  0  0  0  0
    1.5726   -0.3010    0.0000 C   0  0  0  0  0  0  0  0  0  0  0  0
    1.0692   -1.1652    0.0000 C   0  0  0  0  0  0  0  0  0  0  0  0
    0.0918   -0.9534    0.0000 S   0  0  0  0  0  0  0  0  0  0  0  0
  2  1  1  6
  2  3  1  0
  2  4  1  0
  4  5  2  0
  5  6  1  0
  6  7  2  0
  7  8  1  0
  8  4  1  0
M  END

> <chembl_id>
CHEMBL4534341

> <chembl_pref_name>
None

$$$$

     RDKit          2D

 11 12  0  0  0  0  0  0  0  0999 V2000
    0.4714    2.1064    0.0000 N   0  0  0  0  0  0  0  0  0  0  0  0
    1.1400    1.3628    0.0000 C   0  0  0  0  0  0  0  0  0  0  0  0
    0.8302    0.4120    0.0000 C   0  0  0  0  0  0  0  0  0  0  0  0
    1.4174   -0.3974    0.0000 C   0  0  0  0  0  0  0  0  0  0  0  0
    0.8290   -1.2060    0.0000 C   0  0  0  0  0  0  0  0  0  0  0  0
   -0.1218   -0.8962    0.0000 C   0  0  0  0  0  0  0  0  0  0  0  0
   -0.9882   -1.3956    0.0000 C   0  0  0  0  0  0  0  0  0  0  0  0
   -1.8538   -0.8948    0.0000 C   0  0  0  0  0  0  0  0  0  0  0  0
   -1.8530    0.1052    0.0000 C   0  0  0  0  0  0  0  0  0  0  0  0
   -0.9866    0.6044    0.0000 C   0  0  0  0  0  0  0  0  0  0  0  0
   -0.1210    0.1038    0.0000 C   0  0  0  0  0  0  0  0  0  0  0  0
  1  2  1  0
  2  3  1  0
  3  4  1  0
  4  5  1  0
  5  6  1  0
  6  7  2  0
  7  8  1  0
  8  9  2  0
  9 10  1  0
 10 11  2  0
 11  3  1  0
 11  6  1  0
M  END

> <chembl_id>
CHEMBL4569715

> <chembl_pref_name>
None

$$$$

     RDKit          2D

  9  9  0  0  0  0  0  0  0  0999 V2000
    0.7486    1.3254    0.0000 N   0  0  0  0  0  0  0  0  0  0  0  0
    0.7550    0.3256    0.0000 C   0  0  0  0  0  0  0  0  0  0  0  0
    1.6242   -0.1690    0.0000 C   0  0  0  0  0  0  0  0  0  0  0  0
    1.6306   -1.1688    0.0000 N   0  0  0  0  0  0  0  0  0  0  0  0
    0.7678   -1.6744    0.0000 C   0  0  0  0  0  0  0  0  0  0  0  0
   -0.1014   -1.1800    0.0000 C   0  0  0  0  0  0  0  0  0  0  0  0
   -0.1078   -0.1800    0.0000 C   0  0  0  0  0  0  0  0  0  0  0  0
   -0.9770    0.3144    0.0000 C   0  0  0  0  0  0  0  0  0  0  0  0
   -1.8398   -0.1912    0.0000 O   0  0  0  0  0  0  0  0  0  0  0  0
  1  2  1  0
  2  3  2  0
  3  4  1  0
  4  5  2  0
  5  6  1  0
  6  7  2  0
  7  8  1  0
  8  9  1  0
  7  2  1  0
M  END

> <chembl_id>
CHEMBL4592707

> <chembl_pref_name>
None

$$$$

     RDKit          2D

  9  9  0  0  0  0  0  0  0  0999 V2000
    0.7500   -1.0323    0.0000 N   0  0  0  0  0  0  0  0  0  0  0  0
    1.2135    0.3943    0.0000 N   0  0  0  0  0  0  0  0  0  0  0  0
    1.6281   -2.2462    0.0000 C   0  0  0  0  0  0  0  0  0  0  0  0
   -0.7500   -1.0323    0.0000 C   0  0  0  0  0  0  0  0  0  0  0  0
   -1.2135    0.3943    0.0000 C   0  0  0  0  0  0  0  0  0  0  0  0
    0.0000    1.2760    0.0000 C   0  0  0  0  0  0  0  0  0  0  0  0
    1.1385   -3.3418    0.0000 N   0  0  0  0  0  0  0  0  0  0  0  0
    2.8218   -2.1229    0.0000 N   0  0  0  0  0  0  0  0  0  0  0  0
    0.0000    2.4760    0.0000 C   0  0  0  0  0  0  0  0  0  0  0  0
  1  2  1  0
  1  3  1  0
  1  4  1  0
  4  5  2  0
  2  6  2  0
  5  6  1  0
  3  7  2  0
  3  8  1  0
  6  9  1  0
M  END

> <chembl_id>
CHEMBL459840

> <chembl_pref_name>
None

$$$$

     RDKit          2D

 11 12  0  0  0  0  0  0  0  0999 V2000
    1.8476    0.8790    0.0000 C   0  0  0  0  0  0  0  0  0  0  0  0
    0.9848    1.3844    0.0000 C   0  0  0  0  0  0  0  0  0  0  0  0
    0.1156    0.8900    0.0000 C   0  0  0  0  0  0  0  0  0  0  0  0
    0.1092   -0.1098    0.0000 C   0  0  0  0  0  0  0  0  0  0  0  0
   -0.7600   -0.6044    0.0000 C   0  0  0  0  0  0  0  0  0  0  0  0
   -0.8708   -1.5982    0.0000 C   0  0  0  0  0  0  0  0  0  0  0  0
   -1.8504   -1.7998    0.0000 C   0  0  0  0  0  0  0  0  0  0  0  0
   -2.3448   -0.9306    0.0000 C   0  0  0  0  0  0  0  0  0  0  0  0
   -1.6710   -0.1918    0.0000 N   0  0  0  0  0  0  0  0  0  0  0  0
    0.9720   -0.6154    0.0000 N   0  0  0  0  0  0  0  0  0  0  0  0
    1.8412   -0.1210    0.0000 C   0  0  0  0  0  0  0  0  0  0  0  0
  1  2  2  0
  2  3  1  0
  3  4  2  0
  4  5  1  0
  5  6  1  0
  6  7  1  0
  7  8  1  0
  8  9  1  0
  4 10  1  0
 10 11  2  0
 11  1  1  0
  9  5  1  0
M  END

> <chembl_id>
CHEMBL4563271

> <chembl_pref_name>
None

$$$$

     RDKit          2D

  9  9  0  0  0  0  0  0  0  0999 V2000
   -1.9288    0.2836    0.0000 C   0  0  0  0  0  0  0  0  0  0  0  0
   -1.0636   -0.2174    0.0000 C   0  0  0  0  0  0  0  0  0  0  0  0
   -0.1970    0.2816    0.0000 C   0  0  0  0  0  0  0  0  0  0  0  0
    0.7162   -0.1262    0.0000 C   0  0  0  0  0  0  0  0  0  0  0  0
    1.3860    0.6162    0.0000 C   0  0  0  0  0  0  0  0  0  0  0  0
    2.3804    0.5106    0.0000 C   0  0  0  0  0  0  0  0  0  0  0  0
    2.9692    1.3188    0.0000 N   0  0  0  0  0  0  0  0  0  0  0  0
    0.8870    1.4828    0.0000 N   0  0  0  0  0  0  0  0  0  0  0  0
   -0.0914    1.2760    0.0000 N   0  0  0  0  0  0  0  0  0  0  0  0
  1  2  1  0
  2  3  1  0
  3  4  1  0
  4  5  2  0
  5  6  1  0
  6  7  1  0
  5  8  1  0
  8  9  1  0
  9  3  2  0
M  END

> <chembl_id>
CHEMBL4514238

> <chembl_pref_name>
None

$$$$

     RDKit          2D

  8  8  0  0  0  0  0  0  0  0999 V2000
   -2.2328   -1.8646    0.0000 C   0  0  0  0  0  0  0  0  0  0  0  0
   -1.3664   -1.3654    0.0000 C   0  0  0  0  0  0  0  0  0  0  0  0
   -0.5008   -1.8660    0.0000 C   0  0  0  0  0  0  0  0  0  0  0  0
    0.3656   -1.3666    0.0000 C   0  0  0  0  0  0  0  0  0  0  0  0
    0.3664   -0.3666    0.0000 C   0  0  0  0  0  0  0  0  0  0  0  0
    1.2328    0.1326    0.0000 N   0  0  0  0  0  0  0  0  0  0  0  0
   -0.4992    0.1340    0.0000 N   0  0  0  0  0  0  0  0  0  0  0  0
   -1.3656   -0.3654    0.0000 N   0  0  0  0  0  0  0  0  0  0  0  0
  1  2  1  0
  2  3  2  0
  3  4  1  0
  4  5  2  0
  5  6  1  0
  5  7  1  0
  7  8  2  0
  8  2  1  0
M  END

> <chembl_id>
CHEMBL4547920

> <chembl_pref_name>
None

$$$$

     RDKit          2D

  5  5  0  0  0  0  0  0  0  0999 V2000
    8.3126  -15.0887    0.0000 O   0  0  0  0  0  0  0  0  0  0  0  0
    8.5675  -15.8733    0.0000 N   0  0  0  0  0  0  0  0  0  0  0  0
    7.9001  -16.3583    0.0000 C   0  0  0  0  0  0  0  0  0  0  0  0
    7.2326  -15.8733    0.0000 C   0  0  0  0  0  0  0  0  0  0  0  0
    7.4876  -15.0887    0.0000 N   0  0  0  0  0  0  0  0  0  0  0  0
  1  2  1  0
  2  3  2  0
  3  4  1  0
  4  5  2  0
  1  5  1  0
M  END

> <chembl_id>
CHEMBL2171711

> <chembl_pref_name>
None

$$$$

     RDKit          2D

  9  9  0  0  0  0  0  0  0  0999 V2000
    7.3570   -8.5448    0.0000 C   0  0  0  0  0  0  0  0  0  0  0  0
    6.6416   -8.9566    0.0000 C   0  0  0  0  0  0  0  0  0  0  0  0
    6.6413   -9.7842    0.0000 C   0  0  0  0  0  0  0  0  0  0  0  0
    7.3557  -10.1969    0.0000 C   0  0  0  0  0  0  0  0  0  0  0  0
    8.0678   -9.7842    0.0000 C   0  0  0  0  0  0  0  0  0  0  0  0
    8.0687   -8.9579    0.0000 C   0  0  0  0  0  0  0  0  0  0  0  0
    7.3562  -11.0204    0.0000 N   0  0  0  0  0  0  0  0  0  0  0  0
    8.7827   -8.5471    0.0000 C   0  0  0  0  0  0  0  0  0  0  0  0
    9.4953   -8.9602    0.0000 O   0  0  0  0  0  0  0  0  0  0  0  0
  1  2  2  0
  2  3  1  0
  3  4  2  0
  4  5  1  0
  5  6  2  0
  6  1  1  0
  4  7  1  0
  6  8  1  0
  8  9  1  0
M  END

> <chembl_id>
CHEMBL4066403

> <chembl_pref_name>
None

$$$$

     RDKit          2D

 10 10  0  0  0  0  0  0  0  0999 V2000
    5.8875  -22.6970    0.0000 O   0  0  0  0  0  0  0  0  0  0  0  0
    5.1726  -23.1089    0.0000 C   0  0  0  0  0  0  0  0  0  0  0  0
    5.1726  -23.9368    0.0000 C   0  0  0  0  0  0  0  0  0  0  0  0
    4.4579  -24.3487    0.0000 C   0  0  0  0  0  0  0  0  0  0  0  0
    3.7431  -23.9368    0.0000 C   0  0  0  0  0  0  0  0  0  0  0  0
    3.7431  -23.1089    0.0000 C   0  0  0  0  0  0  0  0  0  0  0  0
    3.0284  -22.6970    0.0000 C   0  0  0  0  0  0  0  0  0  0  0  0
    4.4579  -22.6970    0.0000 C   0  0  0  0  0  0  0  0  0  0  0  0
    3.0284  -24.3487    0.0000 O   0  0  0  0  0  0  0  0  0  0  0  0
    5.8875  -24.3487    0.0000 C   0  0  0  0  0  0  0  0  0  0  0  0
  1  2  1  0
  2  3  2  0
  3  4  1  0
  4  5  2  0
  5  6  1  0
  6  7  1  0
  6  8  2  0
  2  8  1  0
  5  9  1  0
  3 10  1  0
M  END

> <chembl_id>
CHEMBL1795408

> <chembl_pref_name>
None

$$$$

     RDKit          2D

 10 10  0  0  0  0  0  0  0  0999 V2000
    2.6686   -1.6790    0.0000 C   0  0  0  0  0  0  0  0  0  0  0  0
    1.7760   -1.2284    0.0000 C   0  0  0  0  0  0  0  0  0  0  0  0
    1.7200   -0.2300    0.0000 C   0  0  0  0  0  0  0  0  0  0  0  0
    2.5568    0.3176    0.0000 O   0  0  0  0  0  0  0  0  0  0  0  0
    0.8274    0.2206    0.0000 C   0  0  0  0  0  0  0  0  0  0  0  0
   -0.0618   -0.2366    0.0000 N   0  0  0  0  0  0  0  0  0  0  0  0
   -0.7716    0.4678    0.0000 C   0  0  0  0  0  0  0  0  0  0  0  0
   -0.3210    1.3604    0.0000 C   0  0  0  0  0  0  0  0  0  0  0  0
    0.6672    1.2078    0.0000 N   0  0  0  0  0  0  0  0  0  0  0  0
    1.3718    1.9174    0.0000 C   0  0  0  0  0  0  0  0  0  0  0  0
  1  2  1  0
  2  3  1  0
  3  4  2  0
  3  5  1  0
  5  6  2  0
  6  7  1  0
  7  8  2  0
  8  9  1  0
  9 10  1  0
  9  5  1  0
M  END

> <chembl_id>
CHEMBL4577785

> <chembl_pref_name>
None

$$$$

     RDKit          2D

  9  9  0  0  0  0  0  0  0  0999 V2000
    1.4050   -0.2540    0.0000 N   0  0  0  0  0  0  0  0  0  0  0  0
    0.5422    0.2514    0.0000 C   0  0  0  0  0  0  0  0  0  0  0  0
   -0.3270   -0.2430    0.0000 C   0  0  0  0  0  0  0  0  0  0  0  0
   -1.1898    0.2626    0.0000 C   0  0  0  0  0  0  0  0  0  0  0  0
   -2.0590   -0.2318    0.0000 C   0  0  0  0  0  0  0  0  0  0  0  0
   -2.9218    0.2738    0.0000 O   0  0  0  0  0  0  0  0  0  0  0  0
   -1.1834    1.2626    0.0000 C   0  0  0  0  0  0  0  0  0  0  0  0
   -0.3142    1.7570    0.0000 C   0  0  0  0  0  0  0  0  0  0  0  0
    0.5486    1.2514    0.0000 N   0  0  0  0  0  0  0  0  0  0  0  0
  1  2  1  0
  2  3  2  0
  3  4  1  0
  4  5  1  0
  5  6  1  0
  4  7  2  0
  7  8  1  0
  8  9  2  0
  9  2  1  0
M  END

> <chembl_id>
CHEMBL4557698

> <chembl_pref_name>
None

$$$$

     RDKit          2D

  9  9  0  0  0  0  0  0  0  0999 V2000
    8.1787   -1.7169    0.0000 N   0  0  0  0  0  0  0  0  0  0  0  0
    8.1776   -2.5364    0.0000 C   0  0  0  0  0  0  0  0  0  0  0  0
    8.8856   -2.9454    0.0000 C   0  0  0  0  0  0  0  0  0  0  0  0
    9.5953   -2.5360    0.0000 C   0  0  0  0  0  0  0  0  0  0  0  0
    9.5925   -1.7133    0.0000 C   0  0  0  0  0  0  0  0  0  0  0  0
    8.8839   -1.3080    0.0000 C   0  0  0  0  0  0  0  0  0  0  0  0
   10.2987   -1.3048    0.0000 C   0  0  0  0  0  0  0  0  0  0  0  0
   11.0049   -0.8935    0.0000 N   0  0  0  0  0  0  0  0  0  0  0  0
    8.8814   -0.4908    0.0000 O   0  0  0  0  0  0  0  0  0  0  0  0
  1  2  2  0
  2  3  1  0
  3  4  2  0
  4  5  1  0
  5  6  2  0
  6  1  1  0
  7  8  3  0
  5  7  1  0
  6  9  1  0
M  END

> <chembl_id>
CHEMBL2314370

> <chembl_pref_name>
None

$$$$

     RDKit          2D

 10 10  0  0  0  0  0  0  0  0999 V2000
   -2.5886    0.6700    0.0000 C   0  0  0  0  0  0  0  0  0  0  0  0
   -1.7220    0.1710    0.0000 C   0  0  0  0  0  0  0  0  0  0  0  0
   -1.7206   -0.8290    0.0000 C   0  0  0  0  0  0  0  0  0  0  0  0
   -0.8566    0.6720    0.0000 C   0  0  0  0  0  0  0  0  0  0  0  0
   -0.8578    1.6720    0.0000 N   0  0  0  0  0  0  0  0  0  0  0  0
    0.0100    0.1730    0.0000 C   0  0  0  0  0  0  0  0  0  0  0  0
    0.9230    0.5808    0.0000 N   0  0  0  0  0  0  0  0  0  0  0  0
    1.5930   -0.1616    0.0000 N   0  0  0  0  0  0  0  0  0  0  0  0
    1.0940   -1.0282    0.0000 C   0  0  0  0  0  0  0  0  0  0  0  0
    0.1156   -0.8212    0.0000 N   0  0  0  0  0  0  0  0  0  0  0  0
  1  2  1  0
  2  3  1  0
  2  4  1  0
  4  5  1  0
  4  6  1  0
  6  7  2  0
  7  8  1  0
  8  9  2  0
  9 10  1  0
 10  6  1  0
M  END

> <chembl_id>
CHEMBL4517182

> <chembl_pref_name>
None

$$$$

     RDKit          2D

  9 10  0  0  0  0  0  0  0  0999 V2000
    1.8168    1.4236    0.0000 N   0  0  0  0  0  0  0  0  0  0  0  0
    1.5070    0.4728    0.0000 C   0  0  0  0  0  0  0  0  0  0  0  0
    2.0942   -0.3366    0.0000 N   0  0  0  0  0  0  0  0  0  0  0  0
    1.5058   -1.1452    0.0000 C   0  0  0  0  0  0  0  0  0  0  0  0
    0.5550   -0.8354    0.0000 C   0  0  0  0  0  0  0  0  0  0  0  0
    0.5558    0.1646    0.0000 N   0  0  0  0  0  0  0  0  0  0  0  0
   -0.3950    0.4744    0.0000 C   0  0  0  0  0  0  0  0  0  0  0  0
   -0.9834   -0.3342    0.0000 C   0  0  0  0  0  0  0  0  0  0  0  0
   -0.3962   -1.1436    0.0000 C   0  0  0  0  0  0  0  0  0  0  0  0
  1  2  1  0
  2  3  2  0
  3  4  1  0
  4  5  2  0
  5  6  1  0
  6  7  1  0
  7  8  1  0
  8  9  1  0
  6  2  1  0
  9  5  1  0
M  END

> <chembl_id>
CHEMBL4564625

> <chembl_pref_name>
None

$$$$

     RDKit          2D

  9  9  0  0  0  0  0  0  0  0999 V2000
   15.0396   -7.1356    0.0000 C   0  0  0  0  0  0  0  0  0  0  0  0
   15.8568   -7.1360    0.0000 C   0  0  0  0  0  0  0  0  0  0  0  0
   16.1111   -6.3593    0.0000 N   0  0  0  0  0  0  0  0  0  0  0  0
   15.4482   -5.8772    0.0000 N   0  0  0  0  0  0  0  0  0  0  0  0
   14.7894   -6.3593    0.0000 C   0  0  0  0  0  0  0  0  0  0  0  0
   15.4469   -5.0600    0.0000 O   0  0  0  0  0  0  0  0  0  0  0  0
   14.6215   -7.8378    0.0000 C   0  0  0  0  0  0  0  0  0  0  0  0
   13.8044   -7.8268    0.0000 N   0  0  0  0  0  0  0  0  0  0  0  0
   16.3362   -7.7978    0.0000 N   0  0  0  0  0  0  0  0  0  0  0  0
  1  2  1  0
  2  3  2  0
  3  4  1  0
  4  5  1  0
  5  1  2  0
  4  6  1  0
  1  7  1  0
  7  8  1  0
  2  9  1  0
M  END

> <chembl_id>
CHEMBL2315221

> <chembl_pref_name>
None

$$$$

     RDKit          2D

 10 11  0  0  0  0  0  0  0  0999 V2000
    0.9868    1.6324    0.0000 O   0  0  0  0  0  0  0  0  0  0  0  0
    0.6770    0.6818    0.0000 C   0  0  0  0  0  0  0  0  0  0  0  0
    1.2642   -0.1278    0.0000 C   0  0  0  0  0  0  0  0  0  0  0  0
    0.6758   -0.9362    0.0000 C   0  0  0  0  0  0  0  0  0  0  0  0
   -0.2750   -0.6266    0.0000 C   0  0  0  0  0  0  0  0  0  0  0  0
   -1.1414   -1.1258    0.0000 C   0  0  0  0  0  0  0  0  0  0  0  0
   -2.0070   -0.6252    0.0000 C   0  0  0  0  0  0  0  0  0  0  0  0
   -2.0062    0.3748    0.0000 C   0  0  0  0  0  0  0  0  0  0  0  0
   -1.1398    0.8742    0.0000 C   0  0  0  0  0  0  0  0  0  0  0  0
   -0.2742    0.3734    0.0000 C   0  0  0  0  0  0  0  0  0  0  0  0
  1  2  1  0
  2  3  1  0
  3  4  1  0
  4  5  1  0
  5  6  2  0
  6  7  1  0
  7  8  2  0
  8  9  1  0
  9 10  2  0
 10  2  1  0
 10  5  1  0
M  END

> <chembl_id>
CHEMBL4564909

> <chembl_pref_name>
None

$$$$

     RDKit          2D

 10 10  0  0  0  0  0  0  0  0999 V2000
    2.2312   -1.8674    0.0000 C   0  0  0  0  0  0  0  0  0  0  0  0
    1.3656   -1.3666    0.0000 C   0  0  0  0  0  0  0  0  0  0  0  0
    0.4992   -1.8660    0.0000 C   0  0  0  0  0  0  0  0  0  0  0  0
   -0.3664   -1.3654    0.0000 N   0  0  0  0  0  0  0  0  0  0  0  0
   -1.2328   -1.8646    0.0000 C   0  0  0  0  0  0  0  0  0  0  0  0
   -0.3656   -0.3654    0.0000 C   0  0  0  0  0  0  0  0  0  0  0  0
   -1.2312    0.1354    0.0000 O   0  0  0  0  0  0  0  0  0  0  0  0
    0.5008    0.1340    0.0000 N   0  0  0  0  0  0  0  0  0  0  0  0
    1.3664   -0.3666    0.0000 C   0  0  0  0  0  0  0  0  0  0  0  0
    2.2328    0.1326    0.0000 O   0  0  0  0  0  0  0  0  0  0  0  0
  1  2  1  0
  2  3  2  0
  3  4  1  0
  4  5  1  0
  4  6  1  0
  6  7  2  0
  6  8  1  0
  8  9  1  0
  9 10  2  0
  9  2  1  0
M  END

> <chembl_id>
CHEMBL4586019

> <chembl_pref_name>
None

$$$$

     RDKit          2D

 11 12  0  0  0  0  0  0  0  0999 V2000
    1.9684   -1.1098    0.0000 C   0  0  0  0  0  0  0  0  0  0  0  0
    1.1034   -0.6080    0.0000 C   0  0  0  0  0  0  0  0  0  0  0  0
    1.1054    0.3920    0.0000 C   0  0  0  0  0  0  0  0  0  0  0  0
    0.2404    0.8936    0.0000 C   0  0  0  0  0  0  0  0  0  0  0  0
    0.2424    1.8936    0.0000 C   0  0  0  0  0  0  0  0  0  0  0  0
    0.7442    2.7586    0.0000 C   0  0  0  0  0  0  0  0  0  0  0  0
   -0.2558    2.7606    0.0000 C   0  0  0  0  0  0  0  0  0  0  0  0
   -0.6266    0.3954    0.0000 N   0  0  0  0  0  0  0  0  0  0  0  0
   -0.6286   -0.6046    0.0000 C   0  0  0  0  0  0  0  0  0  0  0  0
   -1.4956   -1.1028    0.0000 N   0  0  0  0  0  0  0  0  0  0  0  0
    0.2364   -1.1064    0.0000 N   0  0  0  0  0  0  0  0  0  0  0  0
  1  2  1  0
  2  3  2  0
  3  4  1  0
  4  5  1  0
  5  6  1  0
  6  7  1  0
  4  8  2  0
  8  9  1  0
  9 10  1  0
  9 11  2  0
 11  2  1  0
  7  5  1  0
M  END

> <chembl_id>
CHEMBL4590128

> <chembl_pref_name>
None

$$$$

     RDKit          2D

  9  9  0  0  0  0  0  0  0  0999 V2000
   -2.9288    0.2836    0.0000 O   0  0  0  0  0  0  0  0  0  0  0  0
   -2.0636   -0.2174    0.0000 C   0  0  0  0  0  0  0  0  0  0  0  0
   -1.1970    0.2816    0.0000 C   0  0  0  0  0  0  0  0  0  0  0  0
   -1.0914    1.2760    0.0000 C   0  0  0  0  0  0  0  0  0  0  0  0
   -0.1130    1.4828    0.0000 C   0  0  0  0  0  0  0  0  0  0  0  0
    0.3860    0.6162    0.0000 C   0  0  0  0  0  0  0  0  0  0  0  0
    1.3804    0.5106    0.0000 C   0  0  0  0  0  0  0  0  0  0  0  0
    1.9692    1.3188    0.0000 O   0  0  0  0  0  0  0  0  0  0  0  0
   -0.2838   -0.1262    0.0000 O   0  0  0  0  0  0  0  0  0  0  0  0
  1  2  1  0
  2  3  1  0
  3  4  2  0
  4  5  1  0
  5  6  2  0
  6  7  1  0
  7  8  1  0
  6  9  1  0
  9  3  1  0
M  END

> <chembl_id>
CHEMBL4303433

> <chembl_pref_name>
None

$$$$
 
     RDKit          2D

  7  7  0  0  0  0  0  0  0  0999 V2000
   22.2953   -7.7634    0.0000 C   0  0  0  0  0  0  0  0  0  0  0  0
   23.1124   -7.7634    0.0000 C   0  0  0  0  0  0  0  0  0  0  0  0
   23.3668   -6.9866    0.0000 C   0  0  0  0  0  0  0  0  0  0  0  0
   22.7039   -6.5045    0.0000 N   0  0  0  0  0  0  0  0  0  0  0  0
   22.0451   -6.9866    0.0000 N   0  0  0  0  0  0  0  0  0  0  0  0
   24.1444   -6.7352    0.0000 C   0  0  0  0  0  0  0  0  0  0  0  0
   24.9226   -6.4836    0.0000 C   0  0  0  0  0  0  0  0  0  0  0  0
  1  2  1  0
  2  3  2  0
  3  4  1  0
  4  5  1  0
  5  1  2  0
  3  6  1  0
  6  7  3  0
M  END

> <chembl_id>
CHEMBL4563693

> <chembl_pref_name>
None

$$$$
 
     RDKit          2D

  7  7  0  0  0  0  0  0  0  0999 V2000
   29.3115  -10.3635    0.0000 C   0  0  0  0  0  0  0  0  0  0  0  0
   30.1287  -10.3635    0.0000 N   0  0  0  0  0  0  0  0  0  0  0  0
   30.3831   -9.5868    0.0000 C   0  0  0  0  0  0  0  0  0  0  0  0
   29.7201   -9.1047    0.0000 O   0  0  0  0  0  0  0  0  0  0  0  0
   29.0614   -9.5868    0.0000 C   0  0  0  0  0  0  0  0  0  0  0  0
   31.1607   -9.3353    0.0000 C   0  0  0  0  0  0  0  0  0  0  0  0
   31.9389   -9.0836    0.0000 C   0  0  0  0  0  0  0  0  0  0  0  0
  1  2  1  0
  2  3  2  0
  3  4  1  0
  4  5  1  0
  5  1  2  0
  3  6  1  0
  6  7  3  0
M  END

> <chembl_id>
CHEMBL4560126

> <chembl_pref_name>
None

$$$$
 
     RDKit          2D

  7  7  0  0  0  0  0  0  0  0999 V2000
   35.8078  -22.6709    0.0000 C   0  0  0  0  0  0  0  0  0  0  0  0
   36.6250  -22.6709    0.0000 N   0  0  0  0  0  0  0  0  0  0  0  0
   36.8794  -21.8942    0.0000 C   0  0  0  0  0  0  0  0  0  0  0  0
   36.2164  -21.4121    0.0000 S   0  0  0  0  0  0  0  0  0  0  0  0
   35.5577  -21.8942    0.0000 C   0  0  0  0  0  0  0  0  0  0  0  0
   37.6569  -21.6427    0.0000 C   0  0  0  0  0  0  0  0  0  0  0  0
   37.8279  -20.8436    0.0000 C   0  0  0  0  0  0  0  0  0  0  0  0
  1  2  1  0
  2  3  2  0
  3  4  1  0
  4  5  1  0
  5  1  2  0
  3  6  1  0
  6  7  2  0
M  END

> <chembl_id>
CHEMBL4516912

> <chembl_pref_name>
None

$$$$

     RDKit          2D

  9  9  0  0  0  0  0  0  0  0999 V2000
    0.7500   -1.0323    0.0000 S   0  0  0  0  0  0  0  0  0  0  0  0
    1.2135    0.3943    0.0000 C   0  0  0  0  0  0  0  0  0  0  0  0
    0.0000    1.2760    0.0000 N   0  0  0  0  0  0  0  0  0  0  0  0
   -0.7500   -1.0323    0.0000 C   0  0  0  0  0  0  0  0  0  0  0  0
   -1.2135    0.3943    0.0000 C   0  0  0  0  0  0  0  0  0  0  0  0
   -1.6281   -2.2462    0.0000 C   0  0  0  0  0  0  0  0  0  0  0  0
   -1.7190   -4.5887    0.0000 N   0  0  0  0  0  0  0  0  0  0  0  0
   -1.0157   -3.6164    0.0000 C   0  0  0  0  0  0  0  0  0  0  0  0
   -2.3548    0.7651    0.0000 C   0  0  0  0  0  0  0  0  0  0  0  0
  1  2  1  0
  2  3  2  0
  1  4  1  0
  3  5  1  0
  4  5  2  0
  4  6  1  0
  6  8  1  0
  7  8  1  0
  5  9  1  0
M  END

> <chembl_id>
CHEMBL1190174

> <chembl_pref_name>
None

$$$$

     RDKit          2D

  9  9  0  0  0  0  0  0  0  0999 V2000
   -2.6662   -0.4438    0.0000 C   0  0  0  0  0  0  0  0  0  0  0  0
   -1.6712   -0.3432    0.0000 C   0  0  0  0  0  0  0  0  0  0  0  0
   -1.0050   -1.0890    0.0000 C   0  0  0  0  0  0  0  0  0  0  0  0
   -0.0898   -0.6858    0.0000 C   0  0  0  0  0  0  0  0  0  0  0  0
    0.7742   -1.1892    0.0000 C   0  0  0  0  0  0  0  0  0  0  0  0
    1.6422   -0.6928    0.0000 N   0  0  0  0  0  0  0  0  0  0  0  0
   -0.1906    0.3090    0.0000 N   0  0  0  0  0  0  0  0  0  0  0  0
    0.5552    0.9752    0.0000 C   0  0  0  0  0  0  0  0  0  0  0  0
   -1.1678    0.5208    0.0000 N   0  0  0  0  0  0  0  0  0  0  0  0
  1  2  1  0
  2  3  1  0
  3  4  2  0
  4  5  1  0
  5  6  1  0
  4  7  1  0
  7  8  1  0
  7  9  1  0
  9  2  2  0
M  END

> <chembl_id>
CHEMBL4568622

> <chembl_pref_name>
None

$$$$

     RDKit          2D

 10 10  0  0  0  0  0  0  0  0999 V2000
   11.0898  -14.1152    0.0000 C   0  0  0  0  0  0  0  0  0  0  0  0
   10.2726  -14.1152    0.0000 C   0  0  0  0  0  0  0  0  0  0  0  0
   10.0201  -14.8924    0.0000 N   0  0  0  0  0  0  0  0  0  0  0  0
   10.6812  -15.3728    0.0000 N   0  0  0  0  0  0  0  0  0  0  0  0
   11.3423  -14.8924    0.0000 N   0  0  0  0  0  0  0  0  0  0  0  0
   11.5702  -13.4541    0.0000 O   0  0  0  0  0  0  0  0  0  0  0  0
    9.7923  -13.4540    0.0000 C   0  0  0  0  0  0  0  0  0  0  0  0
    8.9796  -13.5394    0.0000 C   0  0  0  0  0  0  0  0  0  0  0  0
    8.4993  -12.8783    0.0000 N   0  0  0  0  0  0  0  0  0  0  0  0
   10.6813  -16.1899    0.0000 C   0  0  0  0  0  0  0  0  0  0  0  0
  1  2  1  0
  2  3  2  0
  3  4  1  0
  4  5  1  0
  5  1  2  0
  1  6  1  0
  2  7  1  0
  7  8  1  0
  8  9  1  0
  4 10  1  0
M  END

> <chembl_id>
CHEMBL4277384

> <chembl_pref_name>
None

$$$$

     RDKit          2D

 10 10  0  0  0  0  0  0  0  0999 V2000
   -0.8738    1.5528    0.0000 N   0  0  0  0  0  0  0  0  0  0  0  0
   -0.8774    0.5528    0.0000 C   0  0  0  0  0  0  0  0  0  0  0  0
   -1.7452    0.0558    0.0000 C   0  0  0  0  0  0  0  0  0  0  0  0
   -2.6094    0.5590    0.0000 F   0  0  0  0  0  0  0  0  0  0  0  0
   -0.0132    0.0496    0.0000 C   0  0  0  0  0  0  0  0  0  0  0  0
    0.8546    0.5466    0.0000 C   0  0  0  0  0  0  0  0  0  0  0  0
    1.7188    0.0434    0.0000 C   0  0  0  0  0  0  0  0  0  0  0  0
    1.7152   -0.9566    0.0000 C   0  0  0  0  0  0  0  0  0  0  0  0
    0.8474   -1.4534    0.0000 C   0  0  0  0  0  0  0  0  0  0  0  0
   -0.0168   -0.9502    0.0000 C   0  0  0  0  0  0  0  0  0  0  0  0
  1  2  1  0
  2  3  1  0
  3  4  1  0
  2  5  1  0
  5  6  2  0
  6  7  1  0
  7  8  2  0
  8  9  1  0
  9 10  2  0
 10  5  1  0
M  END

> <chembl_id>
CHEMBL4538104

> <chembl_pref_name>
None

$$$$

     RDKit          2D

 11 12  0  0  0  0  0  0  0  0999 V2000
    1.4200   -0.3132    0.0000 C   0  0  0  0  0  0  0  0  0  0  0  0
    1.4208    0.6868    0.0000 C   0  0  0  0  0  0  0  0  0  0  0  0
    0.5552    1.1876    0.0000 N   0  0  0  0  0  0  0  0  0  0  0  0
   -0.3112    0.6882    0.0000 C   0  0  0  0  0  0  0  0  0  0  0  0
   -0.3120   -0.3118    0.0000 C   0  0  0  0  0  0  0  0  0  0  0  0
    0.5536   -0.8124    0.0000 C   0  0  0  0  0  0  0  0  0  0  0  0
   -1.0944   -0.9346    0.0000 N   0  0  0  0  0  0  0  0  0  0  0  0
   -2.0692   -0.7114    0.0000 C   0  0  0  0  0  0  0  0  0  0  0  0
   -2.5022    0.1900    0.0000 C   0  0  0  0  0  0  0  0  0  0  0  0
   -2.0678    1.0906    0.0000 C   0  0  0  0  0  0  0  0  0  0  0  0
   -1.0926    1.3122    0.0000 N   0  0  0  0  0  0  0  0  0  0  0  0
  1  2  2  0
  2  3  1  0
  3  4  2  0
  4  5  1  0
  5  6  2  0
  5  7  1  0
  7  8  1  0
  8  9  1  0
  9 10  1  0
 10 11  1  0
  6  1  1  0
 11  4  1  0
M  END

> <chembl_id>
CHEMBL4569617

> <chembl_pref_name>
None

$$$$

     RDKit          2D

  9  9  0  0  0  0  0  0  0  0999 V2000
   13.0251   -2.0917    0.0000 C   0  0  0  0  0  0  0  0  0  0  0  0
   13.0251   -2.9167    0.0000 C   0  0  0  0  0  0  0  0  0  0  0  0
   13.7371   -3.3250    0.0000 C   0  0  0  0  0  0  0  0  0  0  0  0
   14.4492   -2.9167    0.0000 C   0  0  0  0  0  0  0  0  0  0  0  0
   14.4492   -2.0917    0.0000 C   0  0  0  0  0  0  0  0  0  0  0  0
   13.7371   -1.6750    0.0000 N   0  0  0  0  0  0  0  0  0  0  0  0
   15.1649   -1.6812    0.0000 O   0  0  0  0  0  0  0  0  0  0  0  0
   12.3094   -1.6812    0.0000 O   0  0  0  0  0  0  0  0  0  0  0  0
   12.3112   -3.3303    0.0000 C   0  0  0  0  0  0  0  0  0  0  0  0
  1  2  1  0
  1  6  1  0
  2  3  2  0
  3  4  1  0
  4  5  2  0
  5  6  1  0
  5  7  1  0
  1  8  2  0
  2  9  1  0
M  END

> <chembl_id>
CHEMBL3086509

> <chembl_pref_name>
None

$$$$
 
     RDKit          2D

  8  8  0  0  0  0  0  0  0  0999 V2000
   11.1629   -5.1463    0.0000 C   0  0  0  0  0  0  0  0  0  0  0  0
   11.8727   -4.7356    0.0000 N   0  0  0  0  0  0  0  0  0  0  0  0
   11.8722   -3.9191    0.0000 N   0  0  0  0  0  0  0  0  0  0  0  0
   11.1635   -3.5105    0.0000 C   0  0  0  0  0  0  0  0  0  0  0  0
   10.4579   -4.7352    0.0000 C   0  0  0  0  0  0  0  0  0  0  0  0
   10.4548   -3.9201    0.0000 C   0  0  0  0  0  0  0  0  0  0  0  0
   11.1615   -5.9635    0.0000 C   0  0  0  0  0  0  0  0  0  0  0  0
   10.4531   -6.3709    0.0000 N   0  0  0  0  0  0  0  0  0  0  0  0
  1  2  2  0
  2  3  1  0
  3  4  2  0
  4  6  1  0
  5  1  1  0
  5  6  2  0
  1  7  1  0
  7  8  1  0
M  END

> <chembl_id>
CHEMBL4553514

> <chembl_pref_name>
None

$$$$

     RDKit          2D

  9  8  0  0  0  0  0  0  0  0999 V2000
   26.6518   -4.3661    0.0000 Cl  0  0  0  0  0  0  0  0  0  0  0  0
   24.0594   -3.7589    0.0000 N   0  0  0  0  0  0  0  0  0  0  0  0
   24.7668   -3.3479    0.0000 C   0  0  0  0  0  0  0  0  0  0  0  0
   25.4848   -3.7699    0.0000 N   0  0  0  0  0  0  0  0  0  0  0  0
   24.0584   -4.5847    0.0000 C   0  0  0  0  0  0  0  0  0  0  0  0
   23.3435   -3.3504    0.0000 C   0  0  0  0  0  0  0  0  0  0  0  0
   23.3441   -2.5245    0.0000 C   0  0  0  0  0  0  0  0  0  0  0  0
   24.0558   -2.1098    0.0000 C   0  0  0  0  0  0  0  0  0  0  0  0
   24.7660   -2.5210    0.0000 C   0  0  0  0  0  0  0  0  0  0  0  0
  2  3  1  0
  3  4  2  0
  2  5  1  0
  2  6  1  0
  6  7  2  0
  7  8  1  0
  8  9  2  0
  9  3  1  0
M  END

> <chembl_id>
CHEMBL3228386

> <chembl_pref_name>
None

$$$$

     RDKit          2D

 10 10  0  0  0  0  0  0  0  0999 V2000
   -1.7594    0.7100    0.0000 C   0  0  0  0  0  0  0  0  0  0  0  0
   -1.7606   -0.2900    0.0000 C   0  0  0  0  0  0  0  0  0  0  0  0
   -2.6272   -0.7890    0.0000 C   0  0  0  0  0  0  0  0  0  0  0  0
   -3.4926   -0.2880    0.0000 N   0  0  0  0  0  0  0  0  0  0  0  0
   -0.8954   -0.7910    0.0000 C   0  0  0  0  0  0  0  0  0  0  0  0
   -0.0288   -0.2920    0.0000 N   0  0  0  0  0  0  0  0  0  0  0  0
    0.0770    0.7024    0.0000 C   0  0  0  0  0  0  0  0  0  0  0  0
    1.0552    0.9092    0.0000 C   0  0  0  0  0  0  0  0  0  0  0  0
    1.5542    0.0426    0.0000 C   0  0  0  0  0  0  0  0  0  0  0  0
    0.8844   -0.6998    0.0000 N   0  0  0  0  0  0  0  0  0  0  0  0
  1  2  1  0
  2  3  1  0
  3  4  1  0
  2  5  1  0
  5  6  1  0
  6  7  1  0
  7  8  2  0
  8  9  1  0
  9 10  2  0
 10  6  1  0
M  END

> <chembl_id>
CHEMBL4551398

> <chembl_pref_name>
None

$$$$

     RDKit          2D

 11 12  0  0  0  0  0  0  0  0999 V2000
   -4.9843   -3.6768    0.0000 C   0  0  0  0  0  0  0  0  0  0  0  0
   -4.9855   -4.5027    0.0000 C   0  0  0  0  0  0  0  0  0  0  0  0
   -4.2718   -4.9148    0.0000 C   0  0  0  0  0  0  0  0  0  0  0  0
   -4.2736   -3.2647    0.0000 C   0  0  0  0  0  0  0  0  0  0  0  0
   -3.5596   -3.6732    0.0000 C   0  0  0  0  0  0  0  0  0  0  0  0
   -3.5593   -4.5027    0.0000 C   0  0  0  0  0  0  0  0  0  0  0  0
   -2.7702   -4.7589    0.0000 N   0  0  0  0  0  0  0  0  0  0  0  0
   -2.2828   -4.0876    0.0000 C   0  0  0  0  0  0  0  0  0  0  0  0
   -2.7707   -3.4166    0.0000 C   0  0  0  0  0  0  0  0  0  0  0  0
   -1.4592   -4.0873    0.0000 O   0  0  0  0  0  0  0  0  0  0  0  0
   -2.5164   -2.6333    0.0000 O   0  0  0  0  0  0  0  0  0  0  0  0
  2  3  1  0
  3  6  2  0
  1  2  2  0
  5  4  2  0
  6  7  1  0
  7  8  1  0
  8  9  1  0
  9  5  1  0
  4  1  1  0
  8 10  2  0
  5  6  1  0
  9 11  1  0
M  END

> <chembl_id>
CHEMBL2152717

> <chembl_pref_name>
None

$$$$

     RDKit          2D

  9  9  0  0  0  0  0  0  0  0999 V2000
    2.4050   -0.2540    0.0000 C   0  0  0  0  0  0  0  0  0  0  0  0
    1.5422    0.2514    0.0000 C   0  0  0  0  0  0  0  0  0  0  0  0
    1.5486    1.2514    0.0000 C   0  0  0  0  0  0  0  0  0  0  0  0
    0.6858    1.7570    0.0000 N   0  0  0  0  0  0  0  0  0  0  0  0
   -0.1834    1.2626    0.0000 C   0  0  0  0  0  0  0  0  0  0  0  0
   -0.1898    0.2626    0.0000 C   0  0  0  0  0  0  0  0  0  0  0  0
   -1.0590   -0.2318    0.0000 C   0  0  0  0  0  0  0  0  0  0  0  0
   -1.9218    0.2738    0.0000 N   0  0  0  0  0  0  0  0  0  0  0  0
    0.6730   -0.2430    0.0000 C   0  0  0  0  0  0  0  0  0  0  0  0
  1  2  1  0
  2  3  2  0
  3  4  1  0
  4  5  2  0
  5  6  1  0
  6  7  1  0
  7  8  1  0
  6  9  2  0
  9  2  1  0
M  END

> <chembl_id>
CHEMBL4584286

> <chembl_pref_name>
None

$$$$

     RDKit          2D

 10 10  0  0  0  0  0  0  0  0999 V2000
   11.7619   -2.6220    0.0000 N   0  0  0  0  0  0  0  0  0  0  0  0
   12.5869   -2.6220    0.0000 C   0  0  0  0  0  0  0  0  0  0  0  0
   12.9994   -1.9075    0.0000 O   0  0  0  0  0  0  0  0  0  0  0  0
   12.9994   -3.3364    0.0000 N   0  0  0  0  0  0  0  0  0  0  0  0
   12.5869   -4.0509    0.0000 C   0  0  0  0  0  0  0  0  0  0  0  0
   12.9994   -4.7654    0.0000 O   0  0  0  0  0  0  0  0  0  0  0  0
   11.7619   -4.0509    0.0000 C   0  0  0  0  0  0  0  0  0  0  0  0
   11.3494   -3.3364    0.0000 C   0  0  0  0  0  0  0  0  0  0  0  0
   10.1119   -4.0509    0.0000 N   0  0  0  0  0  0  0  0  0  0  0  0
   10.5244   -3.3364    0.0000 N   0  0  0  0  0  0  0  0  0  0  0  0
  1  2  1  0
  2  3  2  0
  2  4  1  0
  4  5  1  0
  5  6  2  0
  5  7  1  0
  7  8  2  0
  1  8  1  0
  9 10  1  0
  8 10  1  0
M  END

> <chembl_id>
CHEMBL3274235

> <chembl_pref_name>
None

$$$$

     RDKit          2D

  7  7  0  0  0  0  0  0  0  0999 V2000
   17.7369  -11.9531    0.0000 C   0  0  0  0  0  0  0  0  0  0  0  0
   18.5541  -11.9531    0.0000 C   0  0  0  0  0  0  0  0  0  0  0  0
   18.9607  -12.6603    0.0000 C   0  0  0  0  0  0  0  0  0  0  0  0
   18.5541  -13.3674    0.0000 C   0  0  0  0  0  0  0  0  0  0  0  0
   17.7369  -13.3674    0.0000 C   0  0  0  0  0  0  0  0  0  0  0  0
   17.3263  -12.6603    0.0000 N   0  0  0  0  0  0  0  0  0  0  0  0
   16.5091  -12.6603    0.0000 O   0  0  0  0  0  0  0  0  0  0  0  0
  1  2  1  0
  2  3  2  0
  3  4  1  0
  4  5  2  0
  5  6  1  0
  1  6  2  0
  6  7  1  0
M  CHG  2   6   1   7  -1
M  END

> <chembl_id>
CHEMBL3278446

> <chembl_pref_name>
None

$$$$

     RDKit          2D

  9  9  0  0  0  0  0  0  0  0999 V2000
    1.0684   -0.7422    0.0000 C   0  0  0  0  0  0  0  0  0  0  0  0
    0.2028   -0.2414    0.0000 N   0  0  0  0  0  0  0  0  0  0  0  0
   -0.6636   -0.7408    0.0000 C   0  0  0  0  0  0  0  0  0  0  0  0
   -1.5292   -0.2402    0.0000 C   0  0  0  0  0  0  0  0  0  0  0  0
   -1.5284    0.7598    0.0000 N   0  0  0  0  0  0  0  0  0  0  0  0
   -0.6620    1.2592    0.0000 C   0  0  0  0  0  0  0  0  0  0  0  0
   -0.6612    2.2592    0.0000 Cl  0  0  0  0  0  0  0  0  0  0  0  0
    0.2036    0.7586    0.0000 C   0  0  0  0  0  0  0  0  0  0  0  0
    1.0700    1.2578    0.0000 O   0  0  0  0  0  0  0  0  0  0  0  0
  1  2  1  0
  2  3  1  0
  3  4  2  0
  4  5  1  0
  5  6  2  0
  6  7  1  0
  6  8  1  0
  8  9  2  0
  8  2  1  0
M  END

> <chembl_id>
CHEMBL4584821

> <chembl_pref_name>
None

$$$$

     RDKit          2D

 11 12  0  0  0  0  0  0  0  0999 V2000
   -4.7072   -7.0400    0.0000 C   0  0  0  0  0  0  0  0  0  0  0  0
   -4.7084   -7.8662    0.0000 C   0  0  0  0  0  0  0  0  0  0  0  0
   -3.9946   -8.2785    0.0000 C   0  0  0  0  0  0  0  0  0  0  0  0
   -3.9964   -6.6278    0.0000 C   0  0  0  0  0  0  0  0  0  0  0  0
   -3.2820   -7.0363    0.0000 C   0  0  0  0  0  0  0  0  0  0  0  0
   -3.2787   -7.8637    0.0000 C   0  0  0  0  0  0  0  0  0  0  0  0
   -2.5645   -8.2721    0.0000 C   0  0  0  0  0  0  0  0  0  0  0  0
   -1.8491   -7.8578    0.0000 C   0  0  0  0  0  0  0  0  0  0  0  0
   -1.8525   -7.0305    0.0000 N   0  0  0  0  0  0  0  0  0  0  0  0
   -2.5713   -6.6175    0.0000 C   0  0  0  0  0  0  0  0  0  0  0  0
   -2.5757   -5.7937    0.0000 O   0  0  0  0  0  0  0  0  0  0  0  0
  2  3  1  0
  3  6  2  0
  1  2  2  0
  5  4  2  0
  4  1  1  0
  5 10  1  0
  6  7  1  0
  7  8  1  0
  8  9  1  0
  9 10  1  0
  5  6  1  0
 10 11  2  0
M  END

> <chembl_id>
CHEMBL1688212

> <chembl_pref_name>
None

$$$$

     RDKit          2D

  9  9  0  0  0  0  0  0  0  0999 V2000
    2.5046   -0.7250    0.0000 C   0  0  0  0  0  0  0  0  0  0  0  0
    1.5096   -0.6244    0.0000 C   0  0  0  0  0  0  0  0  0  0  0  0
    0.8434   -1.3700    0.0000 C   0  0  0  0  0  0  0  0  0  0  0  0
   -0.0716   -0.9670    0.0000 C   0  0  0  0  0  0  0  0  0  0  0  0
   -0.9358   -1.4704    0.0000 C   0  0  0  0  0  0  0  0  0  0  0  0
   -1.8038   -0.9738    0.0000 N   0  0  0  0  0  0  0  0  0  0  0  0
    0.0290    0.0280    0.0000 S   0  0  0  0  0  0  0  0  0  0  0  0
    1.0062    0.2398    0.0000 C   0  0  0  0  0  0  0  0  0  0  0  0
    1.4094    1.1548    0.0000 C   0  0  0  0  0  0  0  0  0  0  0  0
  1  2  1  0
  2  3  1  0
  3  4  2  0
  4  5  1  0
  5  6  1  0
  4  7  1  0
  7  8  1  0
  8  9  1  0
  8  2  2  0
M  END

> <chembl_id>
CHEMBL4544566

> <chembl_pref_name>
None

$$$$

     RDKit          2D

  9  9  0  0  0  0  0  0  0  0999 V2000
    7.6437   -5.6939    0.0000 C   0  0  0  0  0  0  0  0  0  0  0  0
    8.2927   -6.1903    0.0000 S   0  0  0  0  0  0  0  0  0  0  0  0
    8.9667   -5.7280    0.0000 C   0  0  0  0  0  0  0  0  0  0  0  0
    8.7330   -4.9422    0.0000 C   0  0  0  0  0  0  0  0  0  0  0  0
    7.9169   -4.9250    0.0000 C   0  0  0  0  0  0  0  0  0  0  0  0
    9.7370   -6.0006    0.0000 C   0  0  0  0  0  0  0  0  0  0  0  0
   10.5063   -6.2733    0.0000 N   0  0  0  0  0  0  0  0  0  0  0  0
    6.8602   -5.9262    0.0000 C   0  0  0  0  0  0  0  0  0  0  0  0
    6.2673   -5.3638    0.0000 O   0  0  0  0  0  0  0  0  0  0  0  0
  1  2  1  0
  2  3  1  0
  3  4  2  0
  4  5  1  0
  5  1  2  0
  3  6  1  0
  6  7  3  0
  1  8  1  0
  8  9  2  0
M  END

> <chembl_id>
CHEMBL2229532

> <chembl_pref_name>
None

$$$$

     RDKit          2D

 11 11  0  0  0  0  0  0  0  0999 V2000
   -1.2076   -3.0496    0.0000 C   0  0  0  0  0  0  0  0  0  0  0  0
   -0.3827   -3.0496    0.0000 C   0  0  0  0  0  0  0  0  0  0  0  0
    0.0319   -2.3373    0.0000 C   0  0  0  0  0  0  0  0  0  0  0  0
    0.8569   -2.3373    0.0000 C   0  0  0  0  0  0  0  0  0  0  0  0
    1.2673   -3.0496    0.0000 C   0  0  0  0  0  0  0  0  0  0  0  0
    0.8569   -3.7659    0.0000 C   0  0  0  0  0  0  0  0  0  0  0  0
    0.0319   -3.7659    0.0000 C   0  0  0  0  0  0  0  0  0  0  0  0
   -1.6180   -3.7659    0.0000 O   0  0  0  0  0  0  0  0  0  0  0  0
   -1.6180   -2.3373    0.0000 N   0  0  0  0  0  0  0  0  0  0  0  0
   -1.2076   -1.6209    0.0000 C   0  0  0  0  0  0  0  0  0  0  0  0
   -1.6180   -0.9046    0.0000 C   0  0  0  0  0  0  0  0  0  0  0  0
  1  2  1  0
  2  3  1  0
  3  4  2  0
  4  5  1  0
  5  6  2  0
  6  7  1  0
  2  7  2  0
  1  8  2  0
  1  9  1  0
  9 10  1  0
 10 11  1  0
M  END

> <chembl_id>
CHEMBL500597

> <chembl_pref_name>
None

$$$$

     RDKit          2D

 10 11  0  0  0  0  0  0  0  0999 V2000
   15.7274   -1.8407    0.0000 C   0  0  0  0  0  0  0  0  0  0  0  0
   15.7263   -2.6602    0.0000 C   0  0  0  0  0  0  0  0  0  0  0  0
   16.4344   -3.0692    0.0000 C   0  0  0  0  0  0  0  0  0  0  0  0
   16.4326   -1.4318    0.0000 C   0  0  0  0  0  0  0  0  0  0  0  0
   17.1412   -1.8371    0.0000 C   0  0  0  0  0  0  0  0  0  0  0  0
   17.1414   -2.6603    0.0000 C   0  0  0  0  0  0  0  0  0  0  0  0
   17.9244   -2.9145    0.0000 C   0  0  0  0  0  0  0  0  0  0  0  0
   18.4081   -2.2483    0.0000 C   0  0  0  0  0  0  0  0  0  0  0  0
   17.9240   -1.5826    0.0000 O   0  0  0  0  0  0  0  0  0  0  0  0
   18.1771   -3.6916    0.0000 O   0  0  0  0  0  0  0  0  0  0  0  0
  1  2  2  0
  2  3  1  0
  3  6  2  0
  5  4  2  0
  4  1  1  0
  5  6  1  0
  6  7  1  0
  7  8  1  0
  8  9  1  0
  9  5  1  0
  7 10  2  0
M  END

> <chembl_id>
CHEMBL2253270

> <chembl_pref_name>
3-COUMARANONE

$$$$

     RDKit          2D

 11 11  0  0  0  0  0  0  0  0999 V2000
    6.2385   -5.1020    0.0000 N   0  0  0  0  0  0  0  0  0  0  0  0
    5.1993   -4.5021    0.0000 C   0  0  0  0  0  0  0  0  0  0  0  0
    5.1983   -3.0012    0.0000 C   0  0  0  0  0  0  0  0  0  0  0  0
    3.8985   -2.2508    0.0000 C   0  0  0  0  0  0  0  0  0  0  0  0
    2.5988   -1.5004    0.0000 C   0  0  0  0  0  0  0  0  0  0  0  0
    1.2990   -0.7500    0.0000 C   0  0  0  0  0  0  0  0  0  0  0  0
    1.2990    0.7500    0.0000 C   0  0  0  0  0  0  0  0  0  0  0  0
    0.0000    1.5000    0.0000 C   0  0  0  0  0  0  0  0  0  0  0  0
   -1.2990    0.7500    0.0000 C   0  0  0  0  0  0  0  0  0  0  0  0
   -1.2990   -0.7500    0.0000 N   0  0  0  0  0  0  0  0  0  0  0  0
    0.0000   -1.5000    0.0000 C   0  0  0  0  0  0  0  0  0  0  0  0
  1  2  1  0
  2  3  1  0
  3  4  1  0
  4  5  3  0
  5  6  1  0
  6  7  2  0
  7  8  1  0
  8  9  2  0
  9 10  1  0
 10 11  2  0
 11  6  1  0
M  END

> <chembl_id>
CHEMBL3889754

> <chembl_pref_name>
None

$$$$

     RDKit          2D

 10 10  0  0  0  0  0  0  0  0999 V2000
    1.1638    1.5412    0.0000 C   0  0  0  0  0  0  0  0  0  0  0  0
    0.9570    0.5628    0.0000 C   0  0  0  0  0  0  0  0  0  0  0  0
    1.6268   -0.1796    0.0000 C   0  0  0  0  0  0  0  0  0  0  0  0
    1.1278   -1.0462    0.0000 N   0  0  0  0  0  0  0  0  0  0  0  0
    0.1496   -0.8394    0.0000 C   0  0  0  0  0  0  0  0  0  0  0  0
    0.0438    0.1550    0.0000 N   0  0  0  0  0  0  0  0  0  0  0  0
   -0.8228    0.6540    0.0000 C   0  0  0  0  0  0  0  0  0  0  0  0
   -1.6880    0.1530    0.0000 C   0  0  0  0  0  0  0  0  0  0  0  0
   -2.5546    0.6520    0.0000 C   0  0  0  0  0  0  0  0  0  0  0  0
   -3.4200    0.1510    0.0000 N   0  0  0  0  0  0  0  0  0  0  0  0
  1  2  1  0
  2  3  2  0
  3  4  1  0
  4  5  2  0
  5  6  1  0
  6  7  1  0
  7  8  1  0
  8  9  1  0
  9 10  1  0
  6  2  1  0
M  END

> <chembl_id>
CHEMBL4566903

> <chembl_pref_name>
None

$$$$

     RDKit          2D

  9  9  0  0  0  0  0  0  0  0999 V2000
    2.4612   -0.2392    0.0000 C   0  0  0  0  0  0  0  0  0  0  0  0
    1.5984    0.2664    0.0000 C   0  0  0  0  0  0  0  0  0  0  0  0
    1.6048    1.2664    0.0000 C   0  0  0  0  0  0  0  0  0  0  0  0
    0.7420    1.7718    0.0000 N   0  0  0  0  0  0  0  0  0  0  0  0
   -0.1272    1.2774    0.0000 C   0  0  0  0  0  0  0  0  0  0  0  0
   -0.1336    0.2774    0.0000 C   0  0  0  0  0  0  0  0  0  0  0  0
   -1.0028   -0.2170    0.0000 C   0  0  0  0  0  0  0  0  0  0  0  0
   -1.8720   -0.7114    0.0000 N   0  0  0  0  0  0  0  0  0  0  0  0
    0.7292   -0.2280    0.0000 C   0  0  0  0  0  0  0  0  0  0  0  0
  1  2  1  0
  2  3  2  0
  3  4  1  0
  4  5  2  0
  5  6  1  0
  6  7  1  0
  7  8  3  0
  6  9  2  0
  9  2  1  0
M  END

> <chembl_id>
CHEMBL4528869

> <chembl_pref_name>
None

$$$$

     RDKit          2D

 11 11  0  0  0  0  0  0  0  0999 V2000
    1.5644    3.3768    0.0000 N   0  0  0  0  0  0  0  0  0  0  0  0
    1.5636    2.3768    0.0000 C   0  0  0  0  0  0  0  0  0  0  0  0
    1.5628    1.3768    0.0000 C   0  0  0  0  0  0  0  0  0  0  0  0
    0.6964    0.8776    0.0000 C   0  0  0  0  0  0  0  0  0  0  0  0
    0.6956   -0.1224    0.0000 C   0  0  0  0  0  0  0  0  0  0  0  0
   -0.1708   -0.6218    0.0000 C   0  0  0  0  0  0  0  0  0  0  0  0
   -1.0364   -0.1210    0.0000 C   0  0  0  0  0  0  0  0  0  0  0  0
   -1.9028   -0.6204    0.0000 C   0  0  0  0  0  0  0  0  0  0  0  0
   -2.7684   -0.1196    0.0000 N   0  0  0  0  0  0  0  0  0  0  0  0
   -1.0356    0.8790    0.0000 C   0  0  0  0  0  0  0  0  0  0  0  0
   -0.1692    1.3782    0.0000 C   0  0  0  0  0  0  0  0  0  0  0  0
  1  2  3  0
  2  3  1  0
  3  4  1  0
  4  5  2  0
  5  6  1  0
  6  7  2  0
  7  8  1  0
  8  9  1  0
  7 10  1  0
 10 11  2  0
 11  4  1  0
M  END

> <chembl_id>
CHEMBL4583800

> <chembl_pref_name>
None

$$$$

     RDKit          2D

 11 11  0  0  0  0  0  0  0  0999 V2000
    4.1287    0.0000    0.0000 O   0  0  0  0  0  0  0  0  0  0  0  0
    0.4129   -0.7143    0.0000 N   0  0  0  0  0  0  0  0  0  0  0  0
    1.2386   -0.7143    0.0000 C   0  0  0  0  0  0  0  0  0  0  0  0
    2.8900   -0.7143    0.0000 C   0  0  0  0  0  0  0  0  0  0  0  0
    1.6514    0.0000    0.0000 C   0  0  0  0  0  0  0  0  0  0  0  0
    1.6514   -1.4285    0.0000 C   0  0  0  0  0  0  0  0  0  0  0  0
    2.4772    0.0000    0.0000 C   0  0  0  0  0  0  0  0  0  0  0  0
    2.4772   -1.4285    0.0000 C   0  0  0  0  0  0  0  0  0  0  0  0
    3.7158   -0.7143    0.0000 C   0  0  0  0  0  0  0  0  0  0  0  0
    0.0000    0.0000    0.0000 C   0  0  0  0  0  0  0  0  0  0  0  0
    0.0000   -1.4285    0.0000 C   0  0  0  0  0  0  0  0  0  0  0  0
  1  9  2  0
  2  3  1  0
  2 10  1  0
  2 11  1  0
  3  5  2  0
  3  6  1  0
  4  7  2  0
  4  8  1  0
  4  9  1  0
  5  7  1  0
  6  8  2  0
M  END

> <chembl_id>
CHEMBL3188333

> <chembl_pref_name>
None

$$$$

     RDKit          2D

  9  9  0  0  0  0  0  0  0  0999 V2000
   -2.9196    0.2506    0.0000 C   0  0  0  0  0  0  0  0  0  0  0  0
   -2.0518   -0.2462    0.0000 C   0  0  0  0  0  0  0  0  0  0  0  0
   -1.1876    0.2568    0.0000 C   0  0  0  0  0  0  0  0  0  0  0  0
   -1.1912    1.2568    0.0000 C   0  0  0  0  0  0  0  0  0  0  0  0
   -0.3270    1.7598    0.0000 N   0  0  0  0  0  0  0  0  0  0  0  0
    0.5408    1.2630    0.0000 C   0  0  0  0  0  0  0  0  0  0  0  0
    0.5444    0.2630    0.0000 C   0  0  0  0  0  0  0  0  0  0  0  0
    1.4122   -0.2338    0.0000 C   0  0  0  0  0  0  0  0  0  0  0  0
   -0.3198   -0.2400    0.0000 N   0  0  0  0  0  0  0  0  0  0  0  0
  1  2  1  0
  2  3  1  0
  3  4  2  0
  4  5  1  0
  5  6  2  0
  6  7  1  0
  7  8  1  0
  7  9  2  0
  9  3  1  0
M  END

> <chembl_id>
CHEMBL4522941

> <chembl_pref_name>
None

$$$$

     RDKit          2D

 10 10  0  0  0  0  0  0  0  0999 V2000
    1.3840    1.5914    0.0000 C   0  0  0  0  0  0  0  0  0  0  0  0
    0.5198    1.0882    0.0000 C   0  0  0  0  0  0  0  0  0  0  0  0
    0.5236    0.0882    0.0000 C   0  0  0  0  0  0  0  0  0  0  0  0
   -0.3408   -0.4148    0.0000 N   0  0  0  0  0  0  0  0  0  0  0  0
   -1.2086    0.0820    0.0000 C   0  0  0  0  0  0  0  0  0  0  0  0
   -2.0728   -0.4210    0.0000 C   0  0  0  0  0  0  0  0  0  0  0  0
   -2.9406    0.0758    0.0000 C   0  0  0  0  0  0  0  0  0  0  0  0
   -3.8048   -0.4272    0.0000 N   0  0  0  0  0  0  0  0  0  0  0  0
   -1.2122    1.0820    0.0000 N   0  0  0  0  0  0  0  0  0  0  0  0
   -0.3480    1.5852    0.0000 C   0  0  0  0  0  0  0  0  0  0  0  0
  1  2  1  0
  2  3  2  0
  3  4  1  0
  4  5  2  0
  5  6  1  0
  6  7  1  0
  7  8  1  0
  5  9  1  0
  9 10  2  0
 10  2  1  0
M  END

> <chembl_id>
CHEMBL4556169

> <chembl_pref_name>
None

$$$$

     RDKit          2D

  9 10  0  0  0  0  0  0  0  0999 V2000
    1.7240   -0.2318    0.0000 C   0  0  0  0  0  0  0  0  0  0  0  0
    0.8884    0.3176    0.0000 C   0  0  0  0  0  0  0  0  0  0  0  0
    0.1078   -0.3072    0.0000 N   0  0  0  0  0  0  0  0  0  0  0  0
   -0.8566   -0.0428    0.0000 C   0  0  0  0  0  0  0  0  0  0  0  0
   -1.3516    0.8262    0.0000 C   0  0  0  0  0  0  0  0  0  0  0  0
   -2.2204    0.3310    0.0000 N   0  0  0  0  0  0  0  0  0  0  0  0
   -1.7256   -0.5378    0.0000 C   0  0  0  0  0  0  0  0  0  0  0  0
    0.4608   -1.2428    0.0000 N   0  0  0  0  0  0  0  0  0  0  0  0
    1.4596   -1.1962    0.0000 N   0  0  0  0  0  0  0  0  0  0  0  0
  1  2  2  0
  2  3  1  0
  3  4  1  0
  4  5  1  0
  5  6  1  0
  6  7  1  0
  3  8  1  0
  8  9  2  0
  9  1  1  0
  7  4  1  0
M  END

> <chembl_id>
CHEMBL4514293

> <chembl_pref_name>
None

$$$$

     RDKit          2D

  8  8  0  0  0  0  0  0  0  0999 V2000
    0.5202   -0.5253    0.0000 C   0  0  0  0  0  0  0  0  0  0  0  0
    0.5202    0.2997    0.0000 N   0  0  0  0  0  0  0  0  0  0  0  0
   -0.1943    0.7122    0.0000 C   0  0  0  0  0  0  0  0  0  0  0  0
   -0.9088    0.2997    0.0000 N   0  0  0  0  0  0  0  0  0  0  0  0
   -0.9088   -0.5253    0.0000 C   0  0  0  0  0  0  0  0  0  0  0  0
   -0.1943   -0.9378    0.0000 N   0  0  0  0  0  0  0  0  0  0  0  0
   -0.1943    1.5372    0.0000 N   0  0  0  0  0  0  0  0  0  0  0  0
    1.2347   -0.9378    0.0000 O   0  0  0  0  0  0  0  0  0  0  0  0
  1  6  1  0
  1  8  2  0
  1  2  1  0
  3  2  2  0
  3  4  1  0
  3  7  1  0
  5  4  1  0
  5  6  2  0
M  END

> <chembl_id>
CHEMBL1230389

> <chembl_pref_name>
None

$$$$

     RDKit          2D

 11 12  0  0  0  0  0  0  0  0999 V2000
   -1.5652    1.0322    0.0000 C   0  0  0  0  0  0  0  0  0  0  0  0
   -0.6996    0.5314    0.0000 C   0  0  0  0  0  0  0  0  0  0  0  0
   -0.7004   -0.4686    0.0000 C   0  0  0  0  0  0  0  0  0  0  0  0
    0.1652   -0.9692    0.0000 C   0  0  0  0  0  0  0  0  0  0  0  0
    1.0316   -0.4700    0.0000 C   0  0  0  0  0  0  0  0  0  0  0  0
    1.0324    0.5300    0.0000 C   0  0  0  0  0  0  0  0  0  0  0  0
    0.1668    1.0308    0.0000 C   0  0  0  0  0  0  0  0  0  0  0  0
    1.9836    0.8384    0.0000 C   0  0  0  0  0  0  0  0  0  0  0  0
    2.2934    1.7890    0.0000 N   0  0  0  0  0  0  0  0  0  0  0  0
    2.5708    0.0288    0.0000 C   0  0  0  0  0  0  0  0  0  0  0  0
    1.9822   -0.7796    0.0000 O   0  0  0  0  0  0  0  0  0  0  0  0
  1  2  1  0
  2  3  2  0
  3  4  1  0
  4  5  2  0
  5  6  1  0
  6  7  2  0
  6  8  1  0
  8  9  1  0
  8 10  1  0
 10 11  1  0
  7  2  1  0
 11  5  1  0
M  END

> <chembl_id>
CHEMBL4540322

> <chembl_pref_name>
None

$$$$
 
     RDKit          2D

  6  6  0  0  0  0  0  0  0  0999 V2000
   19.9758  -21.9940    0.0000 N   0  0  0  0  0  0  0  0  0  0  0  0
   20.7929  -21.9940    0.0000 N   0  0  0  0  0  0  0  0  0  0  0  0
   21.0473  -21.2173    0.0000 C   0  0  0  0  0  0  0  0  0  0  0  0
   20.3843  -20.7352    0.0000 N   0  0  0  0  0  0  0  0  0  0  0  0
   19.7256  -21.2173    0.0000 N   0  0  0  0  0  0  0  0  0  0  0  0
   21.8249  -20.9659    0.0000 N   0  0  0  0  0  0  0  0  0  0  0  0
  1  2  1  0
  2  3  2  0
  3  4  1  0
  4  5  1  0
  5  1  2  0
  3  6  1  0
M  END

> <chembl_id>
CHEMBL4469714

> <chembl_pref_name>
None

$$$$

     RDKit          2D

  8  8  0  0  0  0  0  0  0  0999 V2000
   -2.6396   -0.5864    0.0000 N   0  0  0  0  0  0  0  0  0  0  0  0
   -1.7730   -0.0874    0.0000 C   0  0  0  0  0  0  0  0  0  0  0  0
   -0.9076   -0.5882    0.0000 C   0  0  0  0  0  0  0  0  0  0  0  0
   -0.0412   -0.0892    0.0000 C   0  0  0  0  0  0  0  0  0  0  0  0
    0.8720   -0.4970    0.0000 C   0  0  0  0  0  0  0  0  0  0  0  0
    1.5418    0.2454    0.0000 C   0  0  0  0  0  0  0  0  0  0  0  0
    1.0430    1.1120    0.0000 O   0  0  0  0  0  0  0  0  0  0  0  0
    0.0646    0.9050    0.0000 C   0  0  0  0  0  0  0  0  0  0  0  0
  1  2  1  0
  2  3  1  0
  3  4  1  0
  4  5  1  0
  5  6  2  0
  6  7  1  0
  7  8  1  0
  8  4  2  0
M  END

> <chembl_id>
CHEMBL4526311

> <chembl_pref_name>
None

$$$$

     RDKit          2D

 10 10  0  0  0  0  0  0  0  0999 V2000
    4.0917   -2.0250    0.0000 N   0  0  0  0  0  0  0  0  0  0  0  0
    2.0250   -2.6292    0.0000 C   0  0  0  0  0  0  0  0  0  0  0  0
    3.0542   -2.0292    0.0000 C   0  0  0  0  0  0  0  0  0  0  0  0
    2.5417   -2.9292    0.0000 C   0  0  0  0  0  0  0  0  0  0  0  0
    2.0250   -2.0292    0.0000 C   0  0  0  0  0  0  0  0  0  0  0  0
    3.0542   -2.6292    0.0000 C   0  0  0  0  0  0  0  0  0  0  0  0
    2.5417   -1.7292    0.0000 C   0  0  0  0  0  0  0  0  0  0  0  0
    3.5750   -1.7292    0.0000 C   0  0  0  0  0  0  0  0  0  0  0  0
    1.5042   -2.9292    0.0000 O   0  0  0  0  0  0  0  0  0  0  0  0
    0.9792   -2.6292    0.0000 C   0  0  0  0  0  0  0  0  0  0  0  0
  2  4  1  0
  3  8  1  0
  4  6  2  0
  5  7  1  0
  6  3  1  0
  7  3  2  0
  8  1  1  0
  9  2  1  0
 10  9  1  0
  5  2  2  0
M  END

> <chembl_id>
CHEMBL12720

> <chembl_pref_name>
None

$$$$

     RDKit          2D

  8  8  0  0  0  0  0  0  0  0999 V2000
    5.4167   -3.3292    0.0000 N   0  0  0  0  0  0  0  0  0  0  0  0
    4.7042   -2.9167    0.0000 C   0  0  0  0  0  0  0  0  0  0  0  0
    6.1292   -2.9167    0.0000 C   0  0  0  0  0  0  0  0  0  0  0  0
    3.9875   -3.3292    0.0000 N   0  0  0  0  0  0  0  0  0  0  0  0
    5.4167   -1.6750    0.0000 C   0  0  0  0  0  0  0  0  0  0  0  0
    4.7042   -2.0875    0.0000 C   0  0  0  0  0  0  0  0  0  0  0  0
    6.1292   -2.0875    0.0000 C   0  0  0  0  0  0  0  0  0  0  0  0
    6.8500   -3.3292    0.0000 C   0  0  0  0  0  0  0  0  0  0  0  0
  2  1  1  0
  3  1  2  0
  4  2  1  0
  5  7  2  0
  6  2  2  0
  7  3  1  0
  8  3  1  0
  5  6  1  0
M  END

> <chembl_id>
CHEMBL61591

> <chembl_pref_name>
None

$$$$

     RDKit          2D

 10 10  0  0  0  0  0  0  0  0999 V2000
    3.1315    0.9435    0.0000 N   0  0  0  0  0  0  0  0  0  0  0  0
    1.7966    0.9435    0.0000 N   0  0  0  0  0  0  0  0  0  0  0  0
    1.5666   -0.5086    0.0000 N   0  0  0  0  0  0  0  0  0  0  0  0
    3.8464   -1.1760    0.0000 N   0  0  0  0  0  0  0  0  0  0  0  0
    2.4641    3.0784    0.0000 N   0  0  0  0  0  0  0  0  0  0  0  0
    2.8766    0.1588    0.0000 C   0  0  0  0  0  0  0  0  0  0  0  0
    2.0516    0.1588    0.0000 C   0  0  0  0  0  0  0  0  0  0  0  0
    2.4641    1.4284    0.0000 C   0  0  0  0  0  0  0  0  0  0  0  0
    3.3615   -0.5086    0.0000 C   0  0  0  0  0  0  0  0  0  0  0  0
    2.4641    2.2534    0.0000 C   0  0  0  0  0  0  0  0  0  0  0  0
  1  6  1  0
  1  8  2  0
  2  7  1  0
  2  8  1  0
  3  7  1  0
  4  9  3  0
  5 10  3  0
  6  7  2  0
  6  9  1  0
  8 10  1  0
M  END

> <chembl_id>
CHEMBL1994570

> <chembl_pref_name>
None

$$$$

     RDKit          2D

  9  9  0  0  0  0  0  0  0  0999 V2000
    2.2000   -2.9136    0.0000 N   0  0  0  0  0  0  0  0  0  0  0  0
    2.2000   -1.2636    0.0000 C   0  0  0  0  0  0  0  0  0  0  0  0
    2.2000    0.3864    0.0000 C   0  0  0  0  0  0  0  0  0  0  0  0
    1.4856   -0.8511    0.0000 C   0  0  0  0  0  0  0  0  0  0  0  0
    2.9145   -0.8511    0.0000 C   0  0  0  0  0  0  0  0  0  0  0  0
    1.4856   -0.0261    0.0000 C   0  0  0  0  0  0  0  0  0  0  0  0
    2.9145   -0.0261    0.0000 C   0  0  0  0  0  0  0  0  0  0  0  0
    2.2000   -2.0886    0.0000 C   0  0  0  0  0  0  0  0  0  0  0  0
    2.2000    1.2114    0.0000 C   0  0  0  0  0  0  0  0  0  0  0  0
  1  8  3  0
  2  4  2  0
  2  5  1  0
  2  8  1  0
  3  6  2  0
  3  7  1  0
  3  9  1  0
  4  6  1  0
  5  7  2  0
M  END

> <chembl_id>
CHEMBL1386404

> <chembl_pref_name>
None

$$$$

     RDKit          2D

  9  9  0  0  0  0  0  0  0  0999 V2000
    5.4167   -3.3292    0.0000 N   0  0  0  0  0  0  0  0  0  0  0  0
    4.7042   -2.9167    0.0000 C   0  0  0  0  0  0  0  0  0  0  0  0
    5.4167   -1.6750    0.0000 C   0  0  0  0  0  0  0  0  0  0  0  0
    4.7042   -2.0875    0.0000 C   0  0  0  0  0  0  0  0  0  0  0  0
    6.1292   -2.9167    0.0000 C   0  0  0  0  0  0  0  0  0  0  0  0
    6.1292   -2.0875    0.0000 C   0  0  0  0  0  0  0  0  0  0  0  0
    3.9875   -3.3292    0.0000 N   0  0  0  0  0  0  0  0  0  0  0  0
    5.4125   -0.8500    0.0000 C   0  0  0  0  0  0  0  0  0  0  0  0
    6.8417   -1.6667    0.0000 C   0  0  0  0  0  0  0  0  0  0  0  0
  2  1  1  0
  3  6  2  0
  4  2  2  0
  5  1  2  0
  6  5  1  0
  7  2  1  0
  8  3  1  0
  9  6  1  0
  4  3  1  0
M  END

> <chembl_id>
CHEMBL293022

> <chembl_pref_name>
None

$$$$

     RDKit          2D

  9  9  0  0  0  0  0  0  0  0999 V2000
   -3.6702   -0.4618    0.0000 N   0  0  0  0  0  0  0  0  0  0  0  0
   -2.8038    0.0372    0.0000 C   0  0  0  0  0  0  0  0  0  0  0  0
   -1.9384   -0.4638    0.0000 C   0  0  0  0  0  0  0  0  0  0  0  0
   -1.0718    0.0352    0.0000 C   0  0  0  0  0  0  0  0  0  0  0  0
   -0.9660    1.0296    0.0000 N   0  0  0  0  0  0  0  0  0  0  0  0
    0.0122    1.2364    0.0000 N   0  0  0  0  0  0  0  0  0  0  0  0
    0.5112    0.3698    0.0000 C   0  0  0  0  0  0  0  0  0  0  0  0
    1.5056    0.2642    0.0000 N   0  0  0  0  0  0  0  0  0  0  0  0
   -0.1586   -0.3726    0.0000 S   0  0  0  0  0  0  0  0  0  0  0  0
  1  2  1  0
  2  3  1  0
  3  4  1  0
  4  5  2  0
  5  6  1  0
  6  7  2  0
  7  8  1  0
  7  9  1  0
  9  4  1  0
M  END

> <chembl_id>
CHEMBL4524500

> <chembl_pref_name>
None

$$$$

     RDKit          2D

 10 10  0  0  0  0  0  0  0  0999 V2000
    6.4748   -1.2237    0.0000 N   0  0  0  0  0  0  0  0  0  0  0  0
    7.1216   -1.7359    0.0000 N   0  0  0  0  0  0  0  0  0  0  0  0
    7.8098   -1.2807    0.0000 C   0  0  0  0  0  0  0  0  0  0  0  0
    7.5874   -0.4836    0.0000 N   0  0  0  0  0  0  0  0  0  0  0  0
    6.7638   -0.4522    0.0000 C   0  0  0  0  0  0  0  0  0  0  0  0
    7.0862   -2.5601    0.0000 C   0  0  0  0  0  0  0  0  0  0  0  0
    7.7824   -3.0028    0.0000 C   0  0  0  0  0  0  0  0  0  0  0  0
    7.7471   -3.8270    0.0000 C   0  0  0  0  0  0  0  0  0  0  0  0
    7.0157   -4.2085    0.0000 O   0  0  0  0  0  0  0  0  0  0  0  0
    8.4432   -4.2697    0.0000 O   0  0  0  0  0  0  0  0  0  0  0  0
  1  2  1  0
  2  3  1  0
  3  4  2  0
  4  5  1  0
  5  1  2  0
  2  6  1  0
  6  7  1  0
  7  8  1  0
  8  9  2  0
  8 10  1  0
M  END

> <chembl_id>
CHEMBL3133888

> <chembl_pref_name>
None

$$$$

     RDKit          2D

  8  8  0  0  0  0  0  0  0  0999 V2000
    4.9292   -4.3792    0.0000 N   0  0  0  0  0  0  0  0  0  0  0  0
    5.6417   -4.7917    0.0000 C   0  0  0  0  0  0  0  0  0  0  0  0
    4.9292   -6.0292    0.0000 N   0  0  0  0  0  0  0  0  0  0  0  0
    6.3542   -4.3792    0.0000 S   0  0  0  0  0  0  0  0  0  0  0  0
    5.6417   -5.6167    0.0000 C   0  0  0  0  0  0  0  0  0  0  0  0
    4.2167   -4.7917    0.0000 C   0  0  0  0  0  0  0  0  0  0  0  0
    4.2167   -5.6167    0.0000 C   0  0  0  0  0  0  0  0  0  0  0  0
    7.0667   -4.7917    0.0000 C   0  0  0  0  0  0  0  0  0  0  0  0
  2  1  2  0
  3  7  1  0
  4  2  1  0
  5  2  1  0
  6  1  1  0
  7  6  2  0
  8  4  1  0
  5  3  2  0
M  END

> <chembl_id>
CHEMBL94743

> <chembl_pref_name>
None

$$$$
 
     RDKit          2D

  9  9  0  0  0  0  0  0  0  0999 V2000
    9.6725  -14.0586    0.0000 C   0  0  0  0  0  0  0  0  0  0  0  0
   10.3209  -14.5559    0.0000 N   0  0  0  0  0  0  0  0  0  0  0  0
   10.9942  -14.0930    0.0000 C   0  0  0  0  0  0  0  0  0  0  0  0
   10.7620  -13.3094    0.0000 C   0  0  0  0  0  0  0  0  0  0  0  0
    9.9452  -13.2883    0.0000 C   0  0  0  0  0  0  0  0  0  0  0  0
   11.2594  -12.6610    0.0000 C   0  0  0  0  0  0  0  0  0  0  0  0
   12.0696  -12.7675    0.0000 O   0  0  0  0  0  0  0  0  0  0  0  0
   10.9465  -11.9061    0.0000 O   0  0  0  0  0  0  0  0  0  0  0  0
    9.4822  -12.6149    0.0000 C   0  0  0  0  0  0  0  0  0  0  0  0
  1  2  1  0
  2  3  1  0
  3  4  2  0
  4  5  1  0
  5  1  2  0
  4  6  1  0
  6  7  1  0
  6  8  2  0
  5  9  1  0
M  END

> <chembl_id>
CHEMBL4649435

> <chembl_pref_name>
None

$$$$

     RDKit          2D

 10 10  0  0  0  0  0  0  0  0999 V2000
    9.8218  -17.6435    0.0000 C   0  0  0  0  0  0  0  0  0  0  0  0
    9.8218  -18.4686    0.0000 C   0  0  0  0  0  0  0  0  0  0  0  0
   10.5340  -18.8769    0.0000 C   0  0  0  0  0  0  0  0  0  0  0  0
   11.2460  -18.4686    0.0000 C   0  0  0  0  0  0  0  0  0  0  0  0
   11.2460  -17.6435    0.0000 C   0  0  0  0  0  0  0  0  0  0  0  0
   10.5340  -17.2268    0.0000 N   0  0  0  0  0  0  0  0  0  0  0  0
   11.9617  -17.2330    0.0000 O   0  0  0  0  0  0  0  0  0  0  0  0
    9.1062  -17.2330    0.0000 O   0  0  0  0  0  0  0  0  0  0  0  0
   10.5340  -19.7019    0.0000 C   0  0  0  0  0  0  0  0  0  0  0  0
    9.1080  -18.8822    0.0000 C   0  0  0  0  0  0  0  0  0  0  0  0
  1  2  1  0
  1  6  1  0
  2  3  2  0
  3  4  1  0
  4  5  2  0
  5  6  1  0
  5  7  1  0
  1  8  2  0
  3  9  1  0
  2 10  1  0
M  END

> <chembl_id>
CHEMBL3086520

> <chembl_pref_name>
None

$$$$

     RDKit          2D

 11 12  0  0  0  0  0  0  0  0999 V2000
    2.3942  -16.4615    0.0000 C   0  0  0  0  0  0  0  0  0  0  0  0
    2.3942  -17.2901    0.0000 C   0  0  0  0  0  0  0  0  0  0  0  0
    3.1078  -17.7021    0.0000 C   0  0  0  0  0  0  0  0  0  0  0  0
    3.1078  -16.0450    0.0000 C   0  0  0  0  0  0  0  0  0  0  0  0
    3.8260  -16.4615    0.0000 C   0  0  0  0  0  0  0  0  0  0  0  0
    3.8305  -17.2865    0.0000 C   0  0  0  0  0  0  0  0  0  0  0  0
    4.6165  -17.5372    0.0000 N   0  0  0  0  0  0  0  0  0  0  0  0
    5.0978  -16.8670    0.0000 C   0  0  0  0  0  0  0  0  0  0  0  0
    4.6092  -16.2023    0.0000 C   0  0  0  0  0  0  0  0  0  0  0  0
    3.1070  -18.5261    0.0000 O   0  0  0  0  0  0  0  0  0  0  0  0
    3.1066  -15.2210    0.0000 O   0  0  0  0  0  0  0  0  0  0  0  0
  1  2  2  0
  1  4  1  0
  2  3  1  0
  3  6  1  0
  6  7  1  0
  7  8  1  0
  8  9  2  0
  9  5  1  0
  5  4  1  0
  3 10  2  0
  5  6  2  0
  4 11  2  0
M  END

> <chembl_id>
CHEMBL500863

> <chembl_pref_name>
None

$$$$

     RDKit          2D

 11 12  0  0  0  0  0  0  0  0999 V2000
   10.5027  -10.8750    0.0000 C   0  0  0  0  0  0  0  0  0  0  0  0
   10.5016  -11.7023    0.0000 C   0  0  0  0  0  0  0  0  0  0  0  0
   11.2164  -12.1152    0.0000 N   0  0  0  0  0  0  0  0  0  0  0  0
   11.9328  -11.7019    0.0000 C   0  0  0  0  0  0  0  0  0  0  0  0
   11.9300  -10.8713    0.0000 N   0  0  0  0  0  0  0  0  0  0  0  0
   11.2146  -10.4622    0.0000 C   0  0  0  0  0  0  0  0  0  0  0  0
   12.6480  -12.1132    0.0000 N   0  0  0  0  0  0  0  0  0  0  0  0
   12.6492  -12.9382    0.0000 C   0  0  0  0  0  0  0  0  0  0  0  0
   12.0647  -13.5192    0.0000 C   0  0  0  0  0  0  0  0  0  0  0  0
   12.6490  -14.1017    0.0000 C   0  0  0  0  0  0  0  0  0  0  0  0
   13.2314  -13.5174    0.0000 C   0  0  0  0  0  0  0  0  0  0  0  0
  5  6  2  0
  6  1  1  0
  1  2  2  0
  4  7  1  0
  3  4  2  0
  7  8  1  0
  8  9  1  0
  4  5  1  0
  2  3  1  0
  9 10  1  0
 10 11  1  0
 11  8  1  0
M  END

> <chembl_id>
CHEMBL1649908

> <chembl_pref_name>
None

$$$$

     RDKit          2D

 10 10  0  0  0  0  0  0  0  0999 V2000
    8.5674  -11.5453    0.0000 C   0  0  0  0  0  0  0  0  0  0  0  0
    8.1571  -12.2601    0.0000 C   0  0  0  0  0  0  0  0  0  0  0  0
    8.1571  -10.8306    0.0000 O   0  0  0  0  0  0  0  0  0  0  0  0
    9.3925  -11.5453    0.0000 C   0  0  0  0  0  0  0  0  0  0  0  0
    9.8073  -10.8306    0.0000 C   0  0  0  0  0  0  0  0  0  0  0  0
   10.6323  -10.8306    0.0000 C   0  0  0  0  0  0  0  0  0  0  0  0
   11.0426  -11.5453    0.0000 C   0  0  0  0  0  0  0  0  0  0  0  0
   10.6323  -12.2601    0.0000 C   0  0  0  0  0  0  0  0  0  0  0  0
    9.8073  -12.2601    0.0000 C   0  0  0  0  0  0  0  0  0  0  0  0
   11.8677  -11.5453    0.0000 O   0  0  0  0  0  0  0  0  0  0  0  0
  1  2  1  0
  1  3  1  0
  4  5  1  0
  5  6  2  0
  6  7  1  0
  7  8  2  0
  8  9  1  0
  4  9  2  0
  1  4  1  0
  7 10  1  0
M  END

> <chembl_id>
CHEMBL507057

> <chembl_pref_name>
None

$$$$

     RDKit          2D

  5  5  0  0  0  0  0  0  0  0999 V2000
    0.4125    0.6348    0.0000 N   0  0  0  0  0  0  0  0  0  0  0  0
    0.6674   -0.1498    0.0000 N   0  0  0  0  0  0  0  0  0  0  0  0
    0.0000   -0.6348    0.0000 N   0  0  0  0  0  0  0  0  0  0  0  0
   -0.6674   -0.1498    0.0000 N   0  0  0  0  0  0  0  0  0  0  0  0
   -0.4125    0.6348    0.0000 C   0  0  0  0  0  0  0  0  0  0  0  0
  1  2  1  0
  2  3  2  0
  3  4  1  0
  4  5  2  0
  1  5  1  0
M  END

> <chembl_id>
CHEMBL2148103

> <chembl_pref_name>
TETRAZOLE

$$$$

     RDKit          2D

  6  6  0  0  0  0  0  0  0  0999 V2000
    0.5977    1.2650    0.0000 Br  0  0  0  0  0  0  0  0  0  0  0  0
    0.5977    0.4400    0.0000 C   0  0  0  0  0  0  0  0  0  0  0  0
    1.2651   -0.0449    0.0000 C   0  0  0  0  0  0  0  0  0  0  0  0
    1.0102   -0.8295    0.0000 N   0  0  0  0  0  0  0  0  0  0  0  0
    0.1852   -0.8295    0.0000 C   0  0  0  0  0  0  0  0  0  0  0  0
   -0.0698   -0.0449    0.0000 N   0  0  0  0  0  0  0  0  0  0  0  0
  1  2  1  0
  2  3  2  0
  2  6  1  0
  3  4  1  0
  5  4  1  0
  5  6  2  0
M  END

> <chembl_id>
CHEMBL1232569

> <chembl_pref_name>
None

$$$$

     RDKit          2D

 11 11  0  0  0  0  0  0  0  0999 V2000
    5.6042   -1.4667    0.0000 C   0  0  0  0  0  0  0  0  0  0  0  0
    4.1794   -1.4926    0.0000 C   0  0  0  0  0  0  0  0  0  0  0  0
    6.3250   -1.8667    0.0000 N   0  0  0  0  0  0  0  0  0  0  0  0
    4.8843   -1.0672    0.0000 N   0  0  0  0  0  0  0  0  0  0  0  0
    3.4596   -1.0931    0.0000 O   0  0  0  0  0  0  0  0  0  0  0  0
    4.1944   -2.3175    0.0000 C   0  0  0  0  0  0  0  0  0  0  0  0
    3.4853   -2.7387    0.0000 C   0  0  0  0  0  0  0  0  0  0  0  0
    4.9142   -2.7127    0.0000 C   0  0  0  0  0  0  0  0  0  0  0  0
    4.9291   -3.5293    0.0000 C   0  0  0  0  0  0  0  0  0  0  0  0
    3.5002   -3.5636    0.0000 C   0  0  0  0  0  0  0  0  0  0  0  0
    4.2243   -3.9630    0.0000 C   0  0  0  0  0  0  0  0  0  0  0  0
  2  4  1  0
  3  1  3  0
  4  1  1  0
  5  2  2  0
  6  2  1  0
  7  6  2  0
  8  6  1  0
  9  8  2  0
 10  7  1  0
 11  9  1  0
 11 10  2  0
M  END

> <chembl_id>
CHEMBL57018

> <chembl_pref_name>
None

$$$$

     RDKit          2D

 10 10  0  0  0  0  0  0  0  0999 V2000
    3.5375   -4.5542    0.0000 C   0  0  0  0  0  0  0  0  0  0  0  0
    2.8250   -4.9750    0.0000 C   0  0  0  0  0  0  0  0  0  0  0  0
    2.8292   -5.8000    0.0000 C   0  0  0  0  0  0  0  0  0  0  0  0
    3.5292   -3.7292    0.0000 O   0  0  0  0  0  0  0  0  0  0  0  0
    4.2542   -4.9667    0.0000 N   0  0  0  0  0  0  0  0  0  0  0  0
    2.1167   -6.2125    0.0000 C   0  0  0  0  0  0  0  0  0  0  0  0
    2.1292   -7.0375    0.0000 F   0  0  0  0  0  0  0  0  0  0  0  0
    2.1125   -4.5667    0.0000 C   0  0  0  0  0  0  0  0  0  0  0  0
    1.4000   -4.9792    0.0000 C   0  0  0  0  0  0  0  0  0  0  0  0
    1.4042   -5.8042    0.0000 C   0  0  0  0  0  0  0  0  0  0  0  0
  2  1  1  0
  3  2  2  0
  4  1  2  0
  5  1  1  0
  6  3  1  0
  7  6  1  0
  8  2  1  0
  9  8  2  0
 10  9  1  0
 10  6  2  0
M  END

> <chembl_id>
CHEMBL125759

> <chembl_pref_name>
None

$$$$

     RDKit          2D

 11 11  0  0  0  0  0  0  0  0999 V2000
    1.2550    2.6706    0.0000 C   0  0  0  0  0  0  0  0  0  0  0  0
    1.2586    1.6706    0.0000 C   0  0  0  0  0  0  0  0  0  0  0  0
    0.3944    1.1676    0.0000 C   0  0  0  0  0  0  0  0  0  0  0  0
    0.3980    0.1676    0.0000 C   0  0  0  0  0  0  0  0  0  0  0  0
   -0.4662   -0.3354    0.0000 C   0  0  0  0  0  0  0  0  0  0  0  0
   -1.3340    0.1614    0.0000 C   0  0  0  0  0  0  0  0  0  0  0  0
   -2.1982   -0.3416    0.0000 C   0  0  0  0  0  0  0  0  0  0  0  0
   -3.0660    0.1552    0.0000 C   0  0  0  0  0  0  0  0  0  0  0  0
   -3.9302   -0.3478    0.0000 N   0  0  0  0  0  0  0  0  0  0  0  0
   -1.3376    1.1614    0.0000 C   0  0  0  0  0  0  0  0  0  0  0  0
   -0.4734    1.6644    0.0000 C   0  0  0  0  0  0  0  0  0  0  0  0
  1  2  2  0
  2  3  1  0
  3  4  2  0
  4  5  1  0
  5  6  2  0
  6  7  1  0
  7  8  1  0
  8  9  1  0
  6 10  1  0
 10 11  2  0
 11  3  1  0
M  END

> <chembl_id>
CHEMBL4559928

> <chembl_pref_name>
None

$$$$

     RDKit          2D

 11 11  0  0  0  0  0  0  0  0999 V2000
    8.5040   -4.5248    0.0000 C   0  0  0  0  0  0  0  0  0  0  0  0
    6.3575   -4.1117    0.0000 C   0  0  0  0  0  0  0  0  0  0  0  0
    7.0757   -4.5273    0.0000 C   0  0  0  0  0  0  0  0  0  0  0  0
    7.7899   -4.1117    0.0000 C   0  0  0  0  0  0  0  0  0  0  0  0
    6.3575   -3.2846    0.0000 O   0  0  0  0  0  0  0  0  0  0  0  0
    5.6393   -4.5273    0.0000 O   0  0  0  0  0  0  0  0  0  0  0  0
    8.5021   -5.3468    0.0000 C   0  0  0  0  0  0  0  0  0  0  0  0
    9.2154   -5.7557    0.0000 N   0  0  0  0  0  0  0  0  0  0  0  0
    9.9298   -5.3452    0.0000 C   0  0  0  0  0  0  0  0  0  0  0  0
    9.9263   -4.5174    0.0000 C   0  0  0  0  0  0  0  0  0  0  0  0
    9.2123   -4.1081    0.0000 C   0  0  0  0  0  0  0  0  0  0  0  0
  4  1  1  0
  1  7  2  0
  2  3  1  0
  7  8  1  0
  3  4  2  0
  8  9  2  0
  2  5  1  0
  9 10  1  0
  2  6  2  0
 10 11  2  0
 11  1  1  0
M  END

> <chembl_id>
CHEMBL1771759

> <chembl_pref_name>
None

$$$$

     RDKit          2D

 10 10  0  0  0  0  0  0  0  0999 V2000
    4.8917  -11.2292    0.0000 C   0  0  0  0  0  0  0  0  0  0  0  0
    4.8917  -10.4000    0.0000 C   0  0  0  0  0  0  0  0  0  0  0  0
    4.1750  -11.6417    0.0000 C   0  0  0  0  0  0  0  0  0  0  0  0
    5.6042  -11.6417    0.0000 O   0  0  0  0  0  0  0  0  0  0  0  0
    5.6042   -9.9792    0.0000 C   0  0  0  0  0  0  0  0  0  0  0  0
    6.3167  -10.3917    0.0000 O   0  0  0  0  0  0  0  0  0  0  0  0
    4.1750   -9.9875    0.0000 C   0  0  0  0  0  0  0  0  0  0  0  0
    3.4625  -10.4000    0.0000 C   0  0  0  0  0  0  0  0  0  0  0  0
    3.4625  -11.2292    0.0000 C   0  0  0  0  0  0  0  0  0  0  0  0
    4.1750  -12.4667    0.0000 C   0  0  0  0  0  0  0  0  0  0  0  0
  2  1  1  0
  3  1  2  0
  4  1  1  0
  5  2  1  0
  6  5  1  0
  7  2  2  0
  8  9  2  0
  9  3  1  0
 10  3  1  0
  7  8  1  0
M  END

> <chembl_id>
CHEMBL33063

> <chembl_pref_name>
None

$$$$

     RDKit          2D

 10 10  0  0  0  0  0  0  0  0999 V2000
    4.9292   -6.0292    0.0000 N   0  0  0  0  0  0  0  0  0  0  0  0
    4.9292   -4.3792    0.0000 N   0  0  0  0  0  0  0  0  0  0  0  0
    5.6417   -5.6167    0.0000 C   0  0  0  0  0  0  0  0  0  0  0  0
    5.6417   -4.7917    0.0000 C   0  0  0  0  0  0  0  0  0  0  0  0
    4.2167   -5.6167    0.0000 C   0  0  0  0  0  0  0  0  0  0  0  0
    4.2167   -4.7917    0.0000 C   0  0  0  0  0  0  0  0  0  0  0  0
    6.3542   -6.0292    0.0000 C   0  0  0  0  0  0  0  0  0  0  0  0
    7.0667   -5.6167    0.0000 C   0  0  0  0  0  0  0  0  0  0  0  0
    7.7875   -6.0292    0.0000 C   0  0  0  0  0  0  0  0  0  0  0  0
    8.5000   -5.6167    0.0000 C   0  0  0  0  0  0  0  0  0  0  0  0
  2  6  1  0
  3  1  2  0
  4  3  1  0
  5  1  1  0
  6  5  2  0
  7  3  1  0
  8  7  1  0
  9  8  1  0
 10  9  1  0
  4  2  2  0
M  END

> <chembl_id>
CHEMBL93499

> <chembl_pref_name>
None

$$$$

     RDKit          2D

  8  8  0  0  0  0  0  0  0  0999 V2000
    4.8917   -0.8667    0.0000 N   0  0  0  0  0  0  0  0  0  0  0  0
    4.2250   -0.3792    0.0000 C   0  0  0  0  0  0  0  0  0  0  0  0
    3.8125   -1.6542    0.0000 S   0  0  0  0  0  0  0  0  0  0  0  0
    4.6375   -1.6542    0.0000 C   0  0  0  0  0  0  0  0  0  0  0  0
    3.5542   -0.8667    0.0000 C   0  0  0  0  0  0  0  0  0  0  0  0
    4.2167    0.4458    0.0000 C   0  0  0  0  0  0  0  0  0  0  0  0
    4.9292    1.6833    0.0000 N   0  0  0  0  0  0  0  0  0  0  0  0
    4.9375    0.8583    0.0000 C   0  0  0  0  0  0  0  0  0  0  0  0
  2  1  1  0
  3  4  1  0
  4  1  2  0
  5  2  2  0
  6  2  1  0
  7  8  1  0
  8  6  1  0
  5  3  1  0
M  END

> <chembl_id>
CHEMBL155328

> <chembl_pref_name>
None

$$$$
 
     RDKit          2D

  8  8  0  0  0  0  0  0  0  0999 V2000
   16.7593  -25.8942    0.0000 C   0  0  0  0  0  0  0  0  0  0  0  0
   16.7581  -26.7137    0.0000 C   0  0  0  0  0  0  0  0  0  0  0  0
   17.4662  -27.1227    0.0000 C   0  0  0  0  0  0  0  0  0  0  0  0
   18.1758  -26.7133    0.0000 N   0  0  0  0  0  0  0  0  0  0  0  0
   18.1730  -25.8906    0.0000 C   0  0  0  0  0  0  0  0  0  0  0  0
   17.4644  -25.4853    0.0000 N   0  0  0  0  0  0  0  0  0  0  0  0
   16.0501  -27.1218    0.0000 C   0  0  0  0  0  0  0  0  0  0  0  0
   15.3427  -26.7126    0.0000 O   0  0  0  0  0  0  0  0  0  0  0  0
  1  2  2  0
  2  3  1  0
  3  4  2  0
  4  5  1  0
  5  6  2  0
  6  1  1  0
  2  7  1  0
  7  8  2  0
M  END

> <chembl_id>
CHEMBL4466138

> <chembl_pref_name>
None

$$$$

     RDKit          2D

  9  9  0  0  0  0  0  0  0  0999 V2000
   -4.3910    0.4224    0.0000 O   0  0  0  0  0  0  0  0  0  0  0  0
   -3.6765    2.4849    0.0000 N   0  0  0  0  0  0  0  0  0  0  0  0
   -5.1054    2.4849    0.0000 N   0  0  0  0  0  0  0  0  0  0  0  0
   -2.9620    1.2474    0.0000 N   0  0  0  0  0  0  0  0  0  0  0  0
   -4.3910    3.7224    0.0000 N   0  0  0  0  0  0  0  0  0  0  0  0
   -3.6765    1.6599    0.0000 C   0  0  0  0  0  0  0  0  0  0  0  0
   -4.3910    1.2474    0.0000 C   0  0  0  0  0  0  0  0  0  0  0  0
   -4.3910    2.8974    0.0000 C   0  0  0  0  0  0  0  0  0  0  0  0
   -5.1054    1.6599    0.0000 C   0  0  0  0  0  0  0  0  0  0  0  0
  1  7  1  0
  2  6  1  0
  2  8  2  0
  3  8  1  0
  3  9  2  0
  4  6  1  0
  5  8  1  0
  6  7  2  0
  7  9  1  0
M  END

> <chembl_id>
CHEMBL1374275

> <chembl_pref_name>
None

$$$$

     RDKit          2D

  6  6  0  0  0  0  0  0  0  0999 V2000
    1.4553   -2.0031    0.0000 C   0  0  0  0  0  0  0  0  0  0  0  0
    0.7500   -1.0323    0.0000 C   0  0  0  0  0  0  0  0  0  0  0  0
    1.2135    0.3943    0.0000 N   0  0  0  0  0  0  0  0  0  0  0  0
    0.0000    1.2760    0.0000 C   0  0  0  0  0  0  0  0  0  0  0  0
   -1.2135    0.3943    0.0000 C   0  0  0  0  0  0  0  0  0  0  0  0
   -0.7500   -1.0323    0.0000 N   0  0  0  0  0  0  0  0  0  0  0  0
  1  2  1  0
  2  3  2  0
  3  4  1  0
  4  5  2  0
  5  6  1  0
  6  2  1  0
M  END

> <chembl_id>
CHEMBL293391

> <chembl_pref_name>
None

$$$$

     RDKit          2D

  8  8  0  0  0  0  0  0  0  0999 V2000
    0.0893    1.1920    0.0000 C   0  0  0  0  0  0  0  0  0  0  0  0
   -0.6252    1.6045    0.0000 C   0  0  0  0  0  0  0  0  0  0  0  0
    0.0893    0.3670    0.0000 C   0  0  0  0  0  0  0  0  0  0  0  0
    0.8038   -0.0455    0.0000 C   0  0  0  0  0  0  0  0  0  0  0  0
   -0.6252   -0.0455    0.0000 C   0  0  0  0  0  0  0  0  0  0  0  0
    0.8038   -0.8705    0.0000 C   0  0  0  0  0  0  0  0  0  0  0  0
   -0.6252   -0.8705    0.0000 C   0  0  0  0  0  0  0  0  0  0  0  0
    0.0893   -1.2830    0.0000 C   0  0  0  0  0  0  0  0  0  0  0  0
  1  2  1  0
  1  3  1  0
  4  3  2  0
  5  3  1  0
  4  6  1  0
  5  7  2  0
  6  8  2  0
  7  8  1  0
M  END

> <chembl_id>
CHEMBL371561

> <chembl_pref_name>
ETHYLBENZENE

$$$$

     RDKit          2D

  8  8  0  0  0  0  0  0  0  0999 V2000
    1.0838    1.2762    0.0000 C   0  0  0  0  0  0  0  0  0  0  0  0
    0.8770    0.2978    0.0000 N   0  0  0  0  0  0  0  0  0  0  0  0
    1.5468   -0.4444    0.0000 C   0  0  0  0  0  0  0  0  0  0  0  0
    1.0478   -1.3110    0.0000 N   0  0  0  0  0  0  0  0  0  0  0  0
    0.0694   -1.1042    0.0000 C   0  0  0  0  0  0  0  0  0  0  0  0
   -0.0362   -0.1100    0.0000 C   0  0  0  0  0  0  0  0  0  0  0  0
   -0.9028    0.3892    0.0000 C   0  0  0  0  0  0  0  0  0  0  0  0
   -1.7680   -0.1118    0.0000 N   0  0  0  0  0  0  0  0  0  0  0  0
  1  2  1  0
  2  3  1  0
  3  4  2  0
  4  5  1  0
  5  6  2  0
  6  7  1  0
  7  8  1  0
  6  2  1  0
M  END

> <chembl_id>
CHEMBL4528337

> <chembl_pref_name>
None

$$$$

     RDKit          2D

  8  8  0  0  0  0  0  0  0  0999 V2000
   -0.8914   -1.7732    0.0000 C   0  0  0  0  0  0  0  0  0  0  0  0
   -0.0250   -1.2740    0.0000 C   0  0  0  0  0  0  0  0  0  0  0  0
   -0.0242   -0.2740    0.0000 N   0  0  0  0  0  0  0  0  0  0  0  0
    0.8422    0.2254    0.0000 C   0  0  0  0  0  0  0  0  0  0  0  0
    0.8430    1.2254    0.0000 N   0  0  0  0  0  0  0  0  0  0  0  0
    1.7078   -0.2754    0.0000 C   0  0  0  0  0  0  0  0  0  0  0  0
    1.7070   -1.2754    0.0000 C   0  0  0  0  0  0  0  0  0  0  0  0
    0.8406   -1.7746    0.0000 N   0  0  0  0  0  0  0  0  0  0  0  0
  1  2  1  0
  2  3  2  0
  3  4  1  0
  4  5  2  0
  4  6  1  0
  6  7  2  0
  7  8  1  0
  8  2  1  0
M  END

> <chembl_id>
CHEMBL4579021

> <chembl_pref_name>
None

$$$$

     RDKit          2D

 10 10  0  0  0  0  0  0  0  0999 V2000
    6.1375   -8.9042    0.0000 N   0  0  0  0  0  0  0  0  0  0  0  0
    6.1375   -9.7292    0.0000 C   0  0  0  0  0  0  0  0  0  0  0  0
    5.4167   -8.4917    0.0000 C   0  0  0  0  0  0  0  0  0  0  0  0
    5.4167   -7.6625    0.0000 N   0  0  0  0  0  0  0  0  0  0  0  0
    3.9917   -7.6625    0.0000 N   0  0  0  0  0  0  0  0  0  0  0  0
    4.7042   -7.2500    0.0000 C   0  0  0  0  0  0  0  0  0  0  0  0
    4.7042   -8.9042    0.0000 C   0  0  0  0  0  0  0  0  0  0  0  0
    6.8542  -10.1375    0.0000 N   0  0  0  0  0  0  0  0  0  0  0  0
    5.4250  -10.1417    0.0000 N   0  0  0  0  0  0  0  0  0  0  0  0
    3.9917   -8.4917    0.0000 C   0  0  0  0  0  0  0  0  0  0  0  0
  2  1  1  0
  3  1  1  0
  4  3  2  0
  5 10  1  0
  6  4  1  0
  7  3  1  0
  8  2  2  0
  9  2  1  0
 10  7  2  0
  5  6  2  0
M  END

> <chembl_id>
CHEMBL300952

> <chembl_pref_name>
None

$$$$

     RDKit          2D

 12 14  0  0  1  0  0  0  0  0999 V2000
    5.3667   -1.3875    0.0000 N   0  0  0  0  0  0  0  0  0  0  0  0
    4.5750   -1.1542    0.0000 C   0  0  0  0  0  0  0  0  0  0  0  0
    4.9292   -0.2500    0.0000 C   0  0  0  0  0  0  0  0  0  0  0  0
    4.0500   -0.8167    0.0000 C   0  0  0  0  0  0  0  0  0  0  0  0
    3.9042   -1.6250    0.0000 C   0  0  0  0  0  0  0  0  0  0  0  0
    4.8667    0.6583    0.0000 C   0  0  0  0  0  0  0  0  0  0  0  0
    4.5667   -0.3292    0.0000 C   0  0  0  0  0  0  0  0  0  0  0  0
    3.4125   -0.2792    0.0000 C   0  0  0  0  0  0  0  0  0  0  0  0
    3.1292   -1.9042    0.0000 C   0  0  0  0  0  0  0  0  0  0  0  0
    2.5000   -1.3750    0.0000 C   0  0  0  0  0  0  0  0  0  0  0  0
    2.6417   -0.5625    0.0000 C   0  0  0  0  0  0  0  0  0  0  0  0
    3.6854   -0.6974    0.0000 H   0  0  0  0  0  0  0  0  0  0  0  0
  2  1  1  0
  3  1  1  0
  4  3  1  0
  5  2  1  0
  6  3  1  0
  2  7  1  0
  8  4  1  0
  9  5  1  0
 10  9  2  0
 11  8  2  0
  7  6  1  0
  4  5  2  0
 10 11  1  0
  2 12  1  6
M  END

> <chembl_id>
CHEMBL337792

> <chembl_pref_name>
None

$$$$

     RDKit          2D

 10 11  0  0  0  0  0  0  0  0999 V2000
    2.2324    0.4986    0.0000 C   0  0  0  0  0  0  0  0  0  0  0  0
    2.2316   -0.5014    0.0000 C   0  0  0  0  0  0  0  0  0  0  0  0
    1.3652   -1.0006    0.0000 N   0  0  0  0  0  0  0  0  0  0  0  0
    0.4996   -0.5000    0.0000 C   0  0  0  0  0  0  0  0  0  0  0  0
    0.5004    0.5000    0.0000 C   0  0  0  0  0  0  0  0  0  0  0  0
    1.3668    0.9994    0.0000 C   0  0  0  0  0  0  0  0  0  0  0  0
   -0.3652    1.0006    0.0000 O   0  0  0  0  0  0  0  0  0  0  0  0
   -1.2316    0.5014    0.0000 C   0  0  0  0  0  0  0  0  0  0  0  0
   -1.2324   -0.4986    0.0000 C   0  0  0  0  0  0  0  0  0  0  0  0
   -0.3668   -0.9994    0.0000 N   0  0  0  0  0  0  0  0  0  0  0  0
  1  2  2  0
  2  3  1  0
  3  4  2  0
  4  5  1  0
  5  6  2  0
  5  7  1  0
  7  8  1  0
  8  9  1  0
  9 10  1  0
  6  1  1  0
 10  4  1  0
M  END

> <chembl_id>
CHEMBL4582555

> <chembl_pref_name>
None

$$$$

     RDKit          2D

 11 12  0  0  0  0  0  0  0  0999 V2000
    0.4706    1.7388    0.0000 O   0  0  0  0  0  0  0  0  0  0  0  0
    0.4698    0.7388    0.0000 C   0  0  0  0  0  0  0  0  0  0  0  0
    1.3354    0.2382    0.0000 C   0  0  0  0  0  0  0  0  0  0  0  0
    1.3346   -0.7618    0.0000 C   0  0  0  0  0  0  0  0  0  0  0  0
    0.4682   -1.2612    0.0000 N   0  0  0  0  0  0  0  0  0  0  0  0
   -0.3974   -0.7604    0.0000 C   0  0  0  0  0  0  0  0  0  0  0  0
   -1.2638   -1.2598    0.0000 C   0  0  0  0  0  0  0  0  0  0  0  0
   -2.1294   -0.7592    0.0000 C   0  0  0  0  0  0  0  0  0  0  0  0
   -2.1286    0.2408    0.0000 C   0  0  0  0  0  0  0  0  0  0  0  0
   -1.2622    0.7402    0.0000 C   0  0  0  0  0  0  0  0  0  0  0  0
   -0.3966    0.2396    0.0000 C   0  0  0  0  0  0  0  0  0  0  0  0
  1  2  2  0
  2  3  1  0
  3  4  1  0
  4  5  1  0
  5  6  1  0
  6  7  2  0
  7  8  1  0
  8  9  2  0
  9 10  1  0
 10 11  2  0
 11  2  1  0
 11  6  1  0
M  END

> <chembl_id>
CHEMBL4584531

> <chembl_pref_name>
None

$$$$

     RDKit          2D

  8  8  0  0  0  0  0  0  0  0999 V2000
   13.2050   -5.6326    0.0000 N   0  0  0  0  0  0  0  0  0  0  0  0
   14.0274   -5.6326    0.0000 N   0  0  0  0  0  0  0  0  0  0  0  0
   14.2834   -4.8509    0.0000 C   0  0  0  0  0  0  0  0  0  0  0  0
   13.6162   -4.3657    0.0000 C   0  0  0  0  0  0  0  0  0  0  0  0
   12.9533   -4.8509    0.0000 S   0  0  0  0  0  0  0  0  0  0  0  0
   15.0694   -4.5959    0.0000 C   0  0  0  0  0  0  0  0  0  0  0  0
   15.6798   -5.1471    0.0000 O   0  0  0  0  0  0  0  0  0  0  0  0
   15.2415   -3.7917    0.0000 O   0  0  0  0  0  0  0  0  0  0  0  0
  3  4  2  0
  4  5  1  0
  5  1  1  0
  1  2  2  0
  2  3  1  0
  6  7  1  0
  6  8  2  0
  3  6  1  0
M  END

> <chembl_id>
CHEMBL247337

> <chembl_pref_name>
None

$$$$

     RDKit          2D

  8  8  0  0  0  0  0  0  0  0999 V2000
    5.2518   -0.7821    0.0000 C   0  0  0  0  0  0  0  0  0  0  0  0
    5.9583   -1.1928    0.0000 C   0  0  0  0  0  0  0  0  0  0  0  0
    5.9546   -2.0110    0.0000 N   0  0  0  0  0  0  0  0  0  0  0  0
    6.6602   -2.4216    0.0000 C   0  0  0  0  0  0  0  0  0  0  0  0
    7.3701   -2.0150    0.0000 N   0  0  0  0  0  0  0  0  0  0  0  0
    7.3699   -1.1936    0.0000 C   0  0  0  0  0  0  0  0  0  0  0  0
    6.6636   -0.7867    0.0000 C   0  0  0  0  0  0  0  0  0  0  0  0
    4.5444   -0.3683    0.0000 N   0  0  0  0  0  0  0  0  0  0  0  0
  1  2  1  0
  2  3  2  0
  3  4  1  0
  4  5  2  0
  5  6  1  0
  6  7  2  0
  7  2  1  0
  1  8  3  0
M  END

> <chembl_id>
CHEMBL3352956

> <chembl_pref_name>
None

$$$$

     RDKit          2D

  9  9  0  0  0  0  0  0  0  0999 V2000
    1.4453   -1.0084    0.0000 C   0  0  0  0  0  0  0  0  0  0  0  0
    0.7308   -0.5959    0.0000 C   0  0  0  0  0  0  0  0  0  0  0  0
    0.0164   -1.0084    0.0000 N   0  0  0  0  0  0  0  0  0  0  0  0
   -0.6981   -0.5959    0.0000 C   0  0  0  0  0  0  0  0  0  0  0  0
   -0.6981    0.2291    0.0000 C   0  0  0  0  0  0  0  0  0  0  0  0
   -1.4126    0.6416    0.0000 C   0  0  0  0  0  0  0  0  0  0  0  0
    0.0164    0.6416    0.0000 C   0  0  0  0  0  0  0  0  0  0  0  0
    0.0164    1.4666    0.0000 N   0  0  0  0  0  0  0  0  0  0  0  0
    0.7308    0.2291    0.0000 N   0  0  0  0  0  0  0  0  0  0  0  0
  1  2  1  0
  2  3  1  0
  2  9  2  0
  4  3  2  0
  4  5  1  0
  5  6  1  0
  5  7  2  0
  7  8  1  0
  7  9  1  0
M  END

> <chembl_id>
CHEMBL1235533

> <chembl_pref_name>
None

$$$$

     RDKit          2D

  8  8  0  0  0  0  0  0  0  0999 V2000
    5.9583   -5.0833    0.0000 N   0  0  0  0  0  0  0  0  0  0  0  0
    5.9583   -5.9083    0.0000 C   0  0  0  0  0  0  0  0  0  0  0  0
    5.2417   -4.6708    0.0000 C   0  0  0  0  0  0  0  0  0  0  0  0
    4.5292   -5.0833    0.0000 C   0  0  0  0  0  0  0  0  0  0  0  0
    5.2417   -6.3208    0.0000 N   0  0  0  0  0  0  0  0  0  0  0  0
    4.5292   -5.9083    0.0000 C   0  0  0  0  0  0  0  0  0  0  0  0
    6.6708   -6.3208    0.0000 O   0  0  0  0  0  0  0  0  0  0  0  0
    5.2417   -3.8458    0.0000 N   0  0  0  0  0  0  0  0  0  0  0  0
  2  1  1  0
  3  1  2  0
  4  3  1  0
  5  2  1  0
  6  4  2  0
  7  2  2  0
  8  3  1  0
  6  5  1  0
M  END

> <chembl_id>
CHEMBL15913

> <chembl_pref_name>
CYTOSINE

$$$$

     RDKit          2D

  8  8  0  0  0  0  0  0  0  0999 V2000
    2.4430    0.3956    0.0000 C   0  0  0  0  0  0  0  0  0  0  0  0
    1.4486    0.5012    0.0000 C   0  0  0  0  0  0  0  0  0  0  0  0
    0.9496    1.3678    0.0000 N   0  0  0  0  0  0  0  0  0  0  0  0
   -0.0286    1.1610    0.0000 N   0  0  0  0  0  0  0  0  0  0  0  0
   -0.1344    0.1666    0.0000 C   0  0  0  0  0  0  0  0  0  0  0  0
   -1.0010   -0.3324    0.0000 C   0  0  0  0  0  0  0  0  0  0  0  0
   -1.8662    0.1686    0.0000 N   0  0  0  0  0  0  0  0  0  0  0  0
    0.7788   -0.2412    0.0000 S   0  0  0  0  0  0  0  0  0  0  0  0
  1  2  1  0
  2  3  2  0
  3  4  1  0
  4  5  2  0
  5  6  1  0
  6  7  1  0
  5  8  1  0
  8  2  1  0
M  END

> <chembl_id>
CHEMBL4559017

> <chembl_pref_name>
None

$$$$

     RDKit          2D

  9  9  0  0  0  0  0  0  0  0999 V2000
   12.4861   -1.1333    0.0000 C   0  0  0  0  0  0  0  0  0  0  0  0
   12.4849   -1.9607    0.0000 C   0  0  0  0  0  0  0  0  0  0  0  0
   13.1997   -2.3735    0.0000 C   0  0  0  0  0  0  0  0  0  0  0  0
   13.9162   -1.9602    0.0000 C   0  0  0  0  0  0  0  0  0  0  0  0
   13.9133   -1.1297    0.0000 C   0  0  0  0  0  0  0  0  0  0  0  0
   13.1979   -0.7205    0.0000 C   0  0  0  0  0  0  0  0  0  0  0  0
   14.6262   -0.7145    0.0000 C   0  0  0  0  0  0  0  0  0  0  0  0
   15.3422   -1.1243    0.0000 S   0  0  0  0  0  0  0  0  0  0  0  0
   11.7701   -2.3726    0.0000 C   0  0  0  0  0  0  0  0  0  0  0  0
  4  5  1  0
  2  3  1  0
  5  6  2  0
  6  1  1  0
  1  2  2  0
  5  7  1  0
  3  4  2  0
  7  8  1  0
  2  9  1  0
M  END

> <chembl_id>
CHEMBL1224559

> <chembl_pref_name>
None

$$$$

     RDKit          2D

  9  9  0  0  0  0  0  0  0  0999 V2000
   -2.6878   -0.0748    0.0000 C   0  0  0  0  0  0  0  0  0  0  0  0
   -1.8224    0.4262    0.0000 C   0  0  0  0  0  0  0  0  0  0  0  0
   -1.8238    1.4262    0.0000 N   0  0  0  0  0  0  0  0  0  0  0  0
   -0.9558   -0.0728    0.0000 C   0  0  0  0  0  0  0  0  0  0  0  0
   -0.8502   -1.0672    0.0000 N   0  0  0  0  0  0  0  0  0  0  0  0
    0.1282   -1.2740    0.0000 N   0  0  0  0  0  0  0  0  0  0  0  0
    0.6272   -0.4074    0.0000 C   0  0  0  0  0  0  0  0  0  0  0  0
   -0.0428    0.3350    0.0000 N   0  0  0  0  0  0  0  0  0  0  0  0
    0.1640    1.3132    0.0000 C   0  0  0  0  0  0  0  0  0  0  0  0
  1  2  1  0
  2  3  1  0
  2  4  1  0
  4  5  2  0
  5  6  1  0
  6  7  2  0
  7  8  1  0
  8  9  1  0
  8  4  1  0
M  END

> <chembl_id>
CHEMBL4529612

> <chembl_pref_name>
None

$$$$

     RDKit          2D

 10 10  0  0  0  0  0  0  0  0999 V2000
    1.6467   -1.9515    0.0000 N   0  0  0  0  0  0  0  0  0  0  0  0
    1.6467   -1.1265    0.0000 C   0  0  0  0  0  0  0  0  0  0  0  0
    0.9322   -0.7140    0.0000 C   0  0  0  0  0  0  0  0  0  0  0  0
    2.3612   -0.7140    0.0000 C   0  0  0  0  0  0  0  0  0  0  0  0
    1.6467    0.5235    0.0000 C   0  0  0  0  0  0  0  0  0  0  0  0
    0.9322    0.1110    0.0000 C   0  0  0  0  0  0  0  0  0  0  0  0
    2.3612    0.1110    0.0000 C   0  0  0  0  0  0  0  0  0  0  0  0
    2.3612   -2.3640    0.0000 C   0  0  0  0  0  0  0  0  0  0  0  0
    0.9322   -2.3640    0.0000 C   0  0  0  0  0  0  0  0  0  0  0  0
    1.6467    1.3485    0.0000 C   0  0  0  0  0  0  0  0  0  0  0  0
  1  2  1  0
  1  8  1  0
  1  9  1  0
  2  3  2  0
  2  4  1  0
  3  6  1  0
  4  7  2  0
  5  6  2  0
  5  7  1  0
  5 10  1  0
M  END

> <chembl_id>
CHEMBL1462714

> <chembl_pref_name>
None

$$$$

     RDKit          2D

 10 11  0  0  0  0  0  0  0  0999 V2000
   -2.5620   -1.3370    0.0000 N   0  0  0  0  0  0  0  0  0  0  0  0
   -1.6964   -0.8364    0.0000 C   0  0  0  0  0  0  0  0  0  0  0  0
   -1.6972    0.1636    0.0000 C   0  0  0  0  0  0  0  0  0  0  0  0
   -0.8316    0.6644    0.0000 C   0  0  0  0  0  0  0  0  0  0  0  0
    0.0348    0.1650    0.0000 N   0  0  0  0  0  0  0  0  0  0  0  0
    0.9856    0.4748    0.0000 C   0  0  0  0  0  0  0  0  0  0  0  0
    1.5740   -0.3338    0.0000 C   0  0  0  0  0  0  0  0  0  0  0  0
    0.9868   -1.1432    0.0000 N   0  0  0  0  0  0  0  0  0  0  0  0
    0.0356   -0.8350    0.0000 C   0  0  0  0  0  0  0  0  0  0  0  0
   -0.8300   -1.3356    0.0000 C   0  0  0  0  0  0  0  0  0  0  0  0
  1  2  1  0
  2  3  1  0
  3  4  1  0
  4  5  1  0
  5  6  1  0
  6  7  2  0
  7  8  1  0
  8  9  2  0
  9 10  1  0
 10  2  1  0
  9  5  1  0
M  END

> <chembl_id>
CHEMBL4560014

> <chembl_pref_name>
None

$$$$

     RDKit          2D

 11 11  0  0  0  0  0  0  0  0999 V2000
    1.3292    2.4583    0.0000 C   0  0  0  0  0  0  0  0  0  0  0  0
    0.6167    2.0333    0.0000 C   0  0  0  0  0  0  0  0  0  0  0  0
    1.3250    3.2750    0.0000 C   0  0  0  0  0  0  0  0  0  0  0  0
    2.0417    2.0458    0.0000 C   0  0  0  0  0  0  0  0  0  0  0  0
    2.0417    1.2208    0.0000 N   0  0  0  0  0  0  0  0  0  0  0  0
    0.6167    1.2083    0.0000 C   0  0  0  0  0  0  0  0  0  0  0  0
   -0.1000    2.4458    0.0000 C   0  0  0  0  0  0  0  0  0  0  0  0
    2.7542    2.4583    0.0000 C   0  0  0  0  0  0  0  0  0  0  0  0
   -0.8125    2.0333    0.0000 C   0  0  0  0  0  0  0  0  0  0  0  0
   -0.1000    0.7958    0.0000 C   0  0  0  0  0  0  0  0  0  0  0  0
   -0.8125    1.2083    0.0000 C   0  0  0  0  0  0  0  0  0  0  0  0
  2  1  1  0
  3  1  2  0
  4  1  1  0
  5  4  1  0
  6  2  1  0
  7  2  2  0
  8  4  1  0
  9  7  1  0
 10  6  2  0
 11  9  2  0
 10 11  1  0
M  END

> <chembl_id>
CHEMBL89402

> <chembl_pref_name>
None

$$$$

     RDKit          2D

  9 10  0  0  0  0  0  0  0  0999 V2000
   -0.6454   -0.6148    0.0000 C   0  0  0  0  0  0  0  0  0  0  0  0
   -1.2338    0.1936    0.0000 N   0  0  0  0  0  0  0  0  0  0  0  0
   -0.6466    1.0032    0.0000 N   0  0  0  0  0  0  0  0  0  0  0  0
    0.3046    0.6948    0.0000 C   0  0  0  0  0  0  0  0  0  0  0  0
    0.3054   -0.3052    0.0000 C   0  0  0  0  0  0  0  0  0  0  0  0
    1.1718   -0.8044    0.0000 C   0  0  0  0  0  0  0  0  0  0  0  0
    2.0374   -0.3038    0.0000 N   0  0  0  0  0  0  0  0  0  0  0  0
    2.0366    0.6962    0.0000 C   0  0  0  0  0  0  0  0  0  0  0  0
    1.1702    1.1956    0.0000 C   0  0  0  0  0  0  0  0  0  0  0  0
  1  2  2  0
  2  3  1  0
  3  4  1  0
  4  5  2  0
  5  6  1  0
  6  7  1  0
  7  8  1  0
  8  9  1  0
  5  1  1  0
  9  4  1  0
M  END

> <chembl_id>
CHEMBL4550967

> <chembl_pref_name>
None

$$$$
 
     RDKit          2D

 10 11  0  0  0  0  0  0  0  0999 V2000
    3.0929  -12.7353    0.0000 C   0  0  0  0  0  0  0  0  0  0  0  0
    3.0917  -13.5623    0.0000 C   0  0  0  0  0  0  0  0  0  0  0  0
    3.8062  -13.9749    0.0000 C   0  0  0  0  0  0  0  0  0  0  0  0
    4.5223  -13.5618    0.0000 C   0  0  0  0  0  0  0  0  0  0  0  0
    4.5194  -12.7317    0.0000 C   0  0  0  0  0  0  0  0  0  0  0  0
    3.8043  -12.3228    0.0000 C   0  0  0  0  0  0  0  0  0  0  0  0
    5.2306  -12.3130    0.0000 C   0  0  0  0  0  0  0  0  0  0  0  0
    6.0279  -12.5235    0.0000 C   0  0  0  0  0  0  0  0  0  0  0  0
    6.2384  -11.7261    0.0000 C   0  0  0  0  0  0  0  0  0  0  0  0
    5.4410  -11.5157    0.0000 O   0  0  0  0  0  0  0  0  0  0  0  0
  1  2  2  0
  2  3  1  0
  3  4  2  0
  4  5  1  0
  5  6  2  0
  6  1  1  0
  7  8  1  0
  8  9  1  0
  9 10  1  0
 10  7  1  0
  7  5  1  6
M  END

> <chembl_id>
CHEMBL4786354

> <chembl_pref_name>
None

$$$$

     RDKit          2D

 10 10  0  0  0  0  0  0  0  0999 V2000
   -2.7054   -0.4004    0.0000 C   0  0  0  0  0  0  0  0  0  0  0  0
   -1.8412    0.1026    0.0000 O   0  0  0  0  0  0  0  0  0  0  0  0
   -0.9734   -0.3942    0.0000 C   0  0  0  0  0  0  0  0  0  0  0  0
   -0.1092    0.1088    0.0000 C   0  0  0  0  0  0  0  0  0  0  0  0
    0.7586   -0.3880    0.0000 C   0  0  0  0  0  0  0  0  0  0  0  0
    1.6228    0.1150    0.0000 C   0  0  0  0  0  0  0  0  0  0  0  0
    2.4906   -0.3818    0.0000 O   0  0  0  0  0  0  0  0  0  0  0  0
    1.6192    1.1150    0.0000 N   0  0  0  0  0  0  0  0  0  0  0  0
    0.7514    1.6120    0.0000 C   0  0  0  0  0  0  0  0  0  0  0  0
   -0.1128    1.1088    0.0000 N   0  0  0  0  0  0  0  0  0  0  0  0
  1  2  1  0
  2  3  1  0
  3  4  1  0
  4  5  2  0
  5  6  1  0
  6  7  1  0
  6  8  2  0
  8  9  1  0
  9 10  2  0
 10  4  1  0
M  END

> <chembl_id>
CHEMBL4528560

> <chembl_pref_name>
None

$$$$

     RDKit          2D

  9  9  0  0  0  0  0  0  0  0999 V2000
    0.8597   -1.4411    0.0000 S   0  0  0  0  0  0  0  0  0  0  0  0
    2.1946   -1.4411    0.0000 N   0  0  0  0  0  0  0  0  0  0  0  0
    1.5271   -0.9562    0.0000 C   0  0  0  0  0  0  0  0  0  0  0  0
    1.5271   -0.1312    0.0000 C   0  0  0  0  0  0  0  0  0  0  0  0
    1.1146   -2.2258    0.0000 C   0  0  0  0  0  0  0  0  0  0  0  0
    1.9396   -2.2258    0.0000 C   0  0  0  0  0  0  0  0  0  0  0  0
    2.2416    0.2813    0.0000 C   0  0  0  0  0  0  0  0  0  0  0  0
    2.2416    1.1063    0.0000 C   0  0  0  0  0  0  0  0  0  0  0  0
    2.9561   -0.1312    0.0000 C   0  0  0  0  0  0  0  0  0  0  0  0
  1  3  1  0
  1  5  1  0
  2  3  2  0
  2  6  1  0
  3  4  1  0
  4  7  1  0
  5  6  2  0
  7  8  1  0
  7  9  1  0
M  END

> <chembl_id>
CHEMBL1870000

> <chembl_pref_name>
None

$$$$

     RDKit          2D

 11 11  0  0  0  0  0  0  0  0999 V2000
   17.1902  -14.1916    0.0000 C   0  0  0  0  0  0  0  0  0  0  0  0
   17.1891  -15.0190    0.0000 C   0  0  0  0  0  0  0  0  0  0  0  0
   17.9039  -15.4319    0.0000 C   0  0  0  0  0  0  0  0  0  0  0  0
   18.6203  -15.0185    0.0000 C   0  0  0  0  0  0  0  0  0  0  0  0
   18.6175  -14.1880    0.0000 C   0  0  0  0  0  0  0  0  0  0  0  0
   17.9021  -13.7789    0.0000 C   0  0  0  0  0  0  0  0  0  0  0  0
   16.4757  -13.7793    0.0000 C   0  0  0  0  0  0  0  0  0  0  0  0
   15.7613  -14.1920    0.0000 N   0  0  0  0  0  0  0  0  0  0  0  0
   15.0467  -13.7796    0.0000 C   0  0  0  0  0  0  0  0  0  0  0  0
   14.3324  -14.1923    0.0000 C   0  0  0  0  0  0  0  0  0  0  0  0
   15.0465  -12.9546    0.0000 O   0  0  0  0  0  0  0  0  0  0  0  0
  5  6  2  0
  6  1  1  0
  1  2  2  0
  1  7  1  0
  3  4  2  0
  7  8  1  0
  8  9  1  0
  4  5  1  0
  9 10  1  0
  2  3  1  0
  9 11  2  0
M  END

> <chembl_id>
CHEMBL1632555

> <chembl_pref_name>
None

$$$$
 
     RDKit          2D

  7  7  0  0  0  0  0  0  0  0999 V2000
    3.8804  -12.1304    0.0000 C   0  0  0  0  0  0  0  0  0  0  0  0
    4.5843  -11.7208    0.0000 C   0  0  0  0  0  0  0  0  0  0  0  0
    5.3321  -12.0504    0.0000 O   0  0  0  0  0  0  0  0  0  0  0  0
    5.8766  -11.4410    0.0000 C   0  0  0  0  0  0  0  0  0  0  0  0
    5.4654  -10.7348    0.0000 N   0  0  0  0  0  0  0  0  0  0  0  0
    4.6667  -10.9078    0.0000 N   0  0  0  0  0  0  0  0  0  0  0  0
    6.6897  -11.5234    0.0000 N   0  0  0  0  0  0  0  0  0  0  0  0
  2  3  1  0
  3  4  1  0
  4  5  2  0
  5  6  1  0
  6  2  2  0
  1  2  1  0
  4  7  1  0
M  END

> <chembl_id>
CHEMBL4756116

> <chembl_pref_name>
None

$$$$

     RDKit          2D

 11 11  0  0  0  0  0  0  0  0999 V2000
   -0.9625   -0.5667    0.0000 C   0  0  0  0  0  0  0  0  0  0  0  0
   -1.6833   -0.1542    0.0000 N   0  0  0  0  0  0  0  0  0  0  0  0
   -2.3875   -3.0542    0.0000 N   0  0  0  0  0  0  0  0  0  0  0  0
   -0.2500   -0.1542    0.0000 N   0  0  0  0  0  0  0  0  0  0  0  0
   -0.9583   -1.3917    0.0000 C   0  0  0  0  0  0  0  0  0  0  0  0
   -1.6708   -1.8125    0.0000 C   0  0  0  0  0  0  0  0  0  0  0  0
   -1.6708   -2.6417    0.0000 C   0  0  0  0  0  0  0  0  0  0  0  0
   -3.1000   -2.6417    0.0000 C   0  0  0  0  0  0  0  0  0  0  0  0
    0.4667   -0.5625    0.0000 C   0  0  0  0  0  0  0  0  0  0  0  0
   -2.3875   -1.4000    0.0000 C   0  0  0  0  0  0  0  0  0  0  0  0
   -3.1000   -1.8125    0.0000 C   0  0  0  0  0  0  0  0  0  0  0  0
  2  1  1  0
  3  7  2  0
  4  1  2  0
  5  1  1  0
  6  5  1  0
  7  6  1  0
  8 11  2  0
  9  4  1  0
 10  6  2  0
 11 10  1  0
  3  8  1  0
M  END

> <chembl_id>
CHEMBL423736

> <chembl_pref_name>
None

$$$$
 
     RDKit          2D

 10 10  0  0  0  0  0  0  0  0999 V2000
   23.3311   -3.1415    0.0000 C   0  0  0  0  0  0  0  0  0  0  0  0
   22.5116   -3.1403    0.0000 C   0  0  0  0  0  0  0  0  0  0  0  0
   22.1025   -3.8483    0.0000 C   0  0  0  0  0  0  0  0  0  0  0  0
   22.5119   -4.5580    0.0000 C   0  0  0  0  0  0  0  0  0  0  0  0
   23.3346   -4.5553    0.0000 C   0  0  0  0  0  0  0  0  0  0  0  0
   23.7399   -3.8467    0.0000 C   0  0  0  0  0  0  0  0  0  0  0  0
   24.5571   -3.8443    0.0000 O   0  0  0  0  0  0  0  0  0  0  0  0
   21.2853   -3.8481    0.0000 N   0  0  0  0  0  0  0  0  0  0  0  0
   23.7396   -2.4337    0.0000 O   0  0  0  0  0  0  0  0  0  0  0  0
   24.9636   -3.1354    0.0000 C   0  0  0  0  0  0  0  0  0  0  0  0
  1  2  2  0
  2  3  1  0
  3  4  2  0
  4  5  1  0
  5  6  2  0
  6  1  1  0
  6  7  1  0
  3  8  1  0
  1  9  1  0
  7 10  1  0
M  END

> <chembl_id>
CHEMBL4777229

> <chembl_pref_name>
None

$$$$
 
     RDKit          2D

  6  6  0  0  0  0  0  0  0  0999 V2000
    8.9161   -3.4205    0.0000 N   0  0  0  0  0  0  0  0  0  0  0  0
    9.5853   -2.9381    0.0000 C   0  0  0  0  0  0  0  0  0  0  0  0
    9.3286   -2.1499    0.0000 C   0  0  0  0  0  0  0  0  0  0  0  0
    8.5036   -2.1499    0.0000 C   0  0  0  0  0  0  0  0  0  0  0  0
    8.2468   -2.9381    0.0000 N   0  0  0  0  0  0  0  0  0  0  0  0
    9.8131   -1.4823    0.0000 Br  0  0  0  0  0  0  0  0  0  0  0  0
  4  5  2  0
  2  3  2  0
  1  2  1  0
  3  4  1  0
  5  1  1  0
  3  6  1  0
M  END

> <chembl_id>
CHEMBL4440111

> <chembl_pref_name>
None

$$$$
 
     RDKit          2D

  8  8  0  0  0  0  0  0  0  0999 V2000
    9.2601   -6.0257    0.0000 N   0  0  0  0  0  0  0  0  0  0  0  0
    9.2589   -6.8453    0.0000 C   0  0  0  0  0  0  0  0  0  0  0  0
    9.9670   -7.2542    0.0000 C   0  0  0  0  0  0  0  0  0  0  0  0
   10.6766   -6.8448    0.0000 C   0  0  0  0  0  0  0  0  0  0  0  0
   10.6738   -6.0221    0.0000 C   0  0  0  0  0  0  0  0  0  0  0  0
    9.9652   -5.6169    0.0000 C   0  0  0  0  0  0  0  0  0  0  0  0
   11.3850   -7.2523    0.0000 C   0  0  0  0  0  0  0  0  0  0  0  0
   12.0921   -6.8426    0.0000 C   0  0  0  0  0  0  0  0  0  0  0  0
  1  2  2  0
  2  3  1  0
  3  4  2  0
  4  5  1  0
  5  6  2  0
  6  1  1  0
  4  7  1  0
  7  8  2  0
M  END

> <chembl_id>
CHEMBL4550330

> <chembl_pref_name>
None

$$$$
 
     RDKit          2D

  8  8  0  0  0  0  0  0  0  0999 V2000
   16.1484  -10.6812    0.0000 C   0  0  0  0  0  0  0  0  0  0  0  0
   16.1473  -11.5008    0.0000 C   0  0  0  0  0  0  0  0  0  0  0  0
   16.8553  -11.9097    0.0000 N   0  0  0  0  0  0  0  0  0  0  0  0
   17.5650  -11.5003    0.0000 C   0  0  0  0  0  0  0  0  0  0  0  0
   17.5622  -10.6776    0.0000 C   0  0  0  0  0  0  0  0  0  0  0  0
   16.8535  -10.2724    0.0000 N   0  0  0  0  0  0  0  0  0  0  0  0
   18.2717  -11.9059    0.0000 C   0  0  0  0  0  0  0  0  0  0  0  0
   18.9784  -11.4955    0.0000 C   0  0  0  0  0  0  0  0  0  0  0  0
  1  2  2  0
  2  3  1  0
  3  4  2  0
  4  5  1  0
  5  6  2  0
  6  1  1  0
  4  7  1  0
  7  8  2  0
M  END

> <chembl_id>
CHEMBL4559624

> <chembl_pref_name>
None

$$$$

     RDKit          2D

  9  9  0  0  0  0  0  0  0  0999 V2000
    4.8252   -9.1666    0.0000 N   0  0  0  0  0  0  0  0  0  0  0  0
    6.9688  -10.4094    0.0000 C   0  0  0  0  0  0  0  0  0  0  0  0
    6.2537   -9.9966    0.0000 C   0  0  0  0  0  0  0  0  0  0  0  0
    4.8310   -9.9999    0.0000 C   0  0  0  0  0  0  0  0  0  0  0  0
    5.5458  -10.4089    0.0000 C   0  0  0  0  0  0  0  0  0  0  0  0
    7.6839   -9.9966    0.0000 N   0  0  0  0  0  0  0  0  0  0  0  0
    5.5443   -8.7569    0.0000 C   0  0  0  0  0  0  0  0  0  0  0  0
    6.2573   -9.1705    0.0000 C   0  0  0  0  0  0  0  0  0  0  0  0
    5.5477   -7.9312    0.0000 F   0  0  0  0  0  0  0  0  0  0  0  0
  2  3  1  0
  3  8  2  0
  7  1  2  0
  1  4  1  0
  4  5  2  0
  5  3  1  0
  2  6  1  0
  7  8  1  0
  7  9  1  0
M  END

> <chembl_id>
CHEMBL4103840

> <chembl_pref_name>
None

$$$$

     RDKit          2D

  9 10  0  0  0  0  0  0  0  0999 V2000
    1.3185    2.5814    0.0000 S   0  0  0  0  0  0  0  0  0  0  0  0
   -0.9906    1.1293    0.0000 O   0  0  0  0  0  0  0  0  0  0  0  0
    0.0490    2.1689    0.0000 C   0  0  0  0  0  0  0  0  0  0  0  0
    0.0490    2.9939    0.0000 C   0  0  0  0  0  0  0  0  0  0  0  0
   -0.7357    1.9139    0.0000 C   0  0  0  0  0  0  0  0  0  0  0  0
    0.8336    1.9139    0.0000 C   0  0  0  0  0  0  0  0  0  0  0  0
   -0.7357    3.2488    0.0000 C   0  0  0  0  0  0  0  0  0  0  0  0
    0.8336    3.2488    0.0000 C   0  0  0  0  0  0  0  0  0  0  0  0
   -1.2206    2.5814    0.0000 C   0  0  0  0  0  0  0  0  0  0  0  0
  1  6  1  0
  1  8  1  0
  2  5  2  0
  3  4  1  0
  3  5  1  0
  3  6  2  0
  4  7  1  0
  4  8  2  0
  5  9  1  0
  7  9  2  0
M  END

> <chembl_id>
CHEMBL2003896

> <chembl_pref_name>
None

$$$$

     RDKit          2D

 11 11  0  0  0  0  0  0  0  0999 V2000
   -2.0062   -1.7258    0.0000 C   0  0  0  0  0  0  0  0  0  0  0  0
   -1.1398   -1.2266    0.0000 C   0  0  0  0  0  0  0  0  0  0  0  0
   -0.2742   -1.7272    0.0000 C   0  0  0  0  0  0  0  0  0  0  0  0
   -1.1390   -0.2266    0.0000 C   0  0  0  0  0  0  0  0  0  0  0  0
   -2.0046    0.2742    0.0000 O   0  0  0  0  0  0  0  0  0  0  0  0
   -0.2726    0.2728    0.0000 C   0  0  0  0  0  0  0  0  0  0  0  0
   -0.2718    1.2728    0.0000 C   0  0  0  0  0  0  0  0  0  0  0  0
    0.5946    1.7720    0.0000 C   0  0  0  0  0  0  0  0  0  0  0  0
    1.4602    1.2714    0.0000 N   0  0  0  0  0  0  0  0  0  0  0  0
    1.4594    0.2714    0.0000 C   0  0  0  0  0  0  0  0  0  0  0  0
    0.5930   -0.2280    0.0000 C   0  0  0  0  0  0  0  0  0  0  0  0
  1  2  1  0
  2  3  1  0
  2  4  1  0
  4  5  2  0
  4  6  1  0
  6  7  2  0
  7  8  1  0
  8  9  2  0
  9 10  1  0
 10 11  2  0
 11  6  1  0
M  END

> <chembl_id>
CHEMBL4519147

> <chembl_pref_name>
None

$$$$

     RDKit          2D

  6  6  0  0  0  0  0  0  0  0999 V2000
   -0.0075    0.4473    0.0000 C   0  0  0  0  0  0  0  0  0  0  0  0
    0.6599   -0.0376    0.0000 N   0  0  0  0  0  0  0  0  0  0  0  0
   -0.6749   -0.0376    0.0000 C   0  0  0  0  0  0  0  0  0  0  0  0
    0.4050   -0.8222    0.0000 C   0  0  0  0  0  0  0  0  0  0  0  0
   -0.4200   -0.8222    0.0000 N   0  0  0  0  0  0  0  0  0  0  0  0
   -0.0075    1.2723    0.0000 C   0  0  0  0  0  0  0  0  0  0  0  0
  1  2  1  0
  3  1  2  0
  6  1  1  0
  4  2  2  0
  3  5  1  0
  4  5  1  0
M  END

> <chembl_id>
CHEMBL1230309

> <chembl_pref_name>
None

$$$$

     RDKit          2D

  6  6  0  0  0  0  0  0  0  0999 V2000
    1.6417   -2.6542    0.0000 C   0  0  0  0  0  0  0  0  0  0  0  0
    1.4542   -3.2292    0.0000 N   0  0  0  0  0  0  0  0  0  0  0  0
    1.1542   -2.3042    0.0000 N   0  0  0  0  0  0  0  0  0  0  0  0
    0.8500   -3.2292    0.0000 C   0  0  0  0  0  0  0  0  0  0  0  0
    0.6667   -2.6542    0.0000 C   0  0  0  0  0  0  0  0  0  0  0  0
    2.2125   -2.4750    0.0000 Br  0  0  0  0  0  0  0  0  0  0  0  0
  2  1  2  0
  3  1  1  0
  4  2  1  0
  5  3  1  0
  6  1  1  0
  4  5  2  0
M  END

> <chembl_id>
CHEMBL292042

> <chembl_pref_name>
None

$$$$

     RDKit          2D

  8  8  0  0  0  0  0  0  0  0999 V2000
   -1.7408   -0.0118    0.0000 C   0  0  0  0  0  0  0  0  0  0  0  0
   -0.8754    0.4892    0.0000 C   0  0  0  0  0  0  0  0  0  0  0  0
   -0.8766    1.4892    0.0000 C   0  0  0  0  0  0  0  0  0  0  0  0
   -0.0088   -0.0098    0.0000 N   0  0  0  0  0  0  0  0  0  0  0  0
    0.0968   -1.0042    0.0000 C   0  0  0  0  0  0  0  0  0  0  0  0
    1.0752   -1.2110    0.0000 N   0  0  0  0  0  0  0  0  0  0  0  0
    1.5742   -0.3444    0.0000 C   0  0  0  0  0  0  0  0  0  0  0  0
    0.9042    0.3980    0.0000 N   0  0  0  0  0  0  0  0  0  0  0  0
  1  2  1  0
  2  3  1  0
  2  4  1  0
  4  5  1  0
  5  6  2  0
  6  7  1  0
  7  8  2  0
  8  4  1  0
M  END

> <chembl_id>
CHEMBL4531355

> <chembl_pref_name>
None

$$$$

     RDKit          2D

 11 11  0  0  0  0  0  0  0  0999 V2000
    2.1348    2.2190    0.0000 N   0  0  0  0  0  0  0  0  0  0  0  0
    1.2706    1.7158    0.0000 C   0  0  0  0  0  0  0  0  0  0  0  0
    0.4064    1.2128    0.0000 C   0  0  0  0  0  0  0  0  0  0  0  0
    0.4100    0.2128    0.0000 C   0  0  0  0  0  0  0  0  0  0  0  0
   -0.4542   -0.2902    0.0000 C   0  0  0  0  0  0  0  0  0  0  0  0
   -1.3220    0.2066    0.0000 C   0  0  0  0  0  0  0  0  0  0  0  0
   -2.1862   -0.2966    0.0000 C   0  0  0  0  0  0  0  0  0  0  0  0
   -3.0540    0.2004    0.0000 C   0  0  0  0  0  0  0  0  0  0  0  0
   -3.9182   -0.3028    0.0000 O   0  0  0  0  0  0  0  0  0  0  0  0
   -1.3256    1.2066    0.0000 C   0  0  0  0  0  0  0  0  0  0  0  0
   -0.4614    1.7096    0.0000 C   0  0  0  0  0  0  0  0  0  0  0  0
  1  2  3  0
  2  3  1  0
  3  4  2  0
  4  5  1  0
  5  6  2  0
  6  7  1  0
  7  8  1  0
  8  9  1  0
  6 10  1  0
 10 11  2  0
 11  3  1  0
M  END

> <chembl_id>
CHEMBL4534422

> <chembl_pref_name>
None

$$$$

     RDKit          2D

 10 10  0  0  0  0  0  0  0  0999 V2000
    5.0398  -17.9061    0.0000 C   0  0  0  0  0  0  0  0  0  0  0  0
    5.0385  -18.7337    0.0000 C   0  0  0  0  0  0  0  0  0  0  0  0
    5.7515  -19.1466    0.0000 C   0  0  0  0  0  0  0  0  0  0  0  0
    6.4708  -18.7331    0.0000 C   0  0  0  0  0  0  0  0  0  0  0  0
    6.4677  -17.9021    0.0000 C   0  0  0  0  0  0  0  0  0  0  0  0
    5.7495  -17.4934    0.0000 C   0  0  0  0  0  0  0  0  0  0  0  0
    7.1800  -17.4861    0.0000 C   0  0  0  0  0  0  0  0  0  0  0  0
    7.8965  -17.8951    0.0000 C   0  0  0  0  0  0  0  0  0  0  0  0
    8.6089  -17.4790    0.0000 N   0  0  0  0  0  0  0  0  0  0  0  0
    4.3236  -19.1452    0.0000 C   0  0  0  0  0  0  0  0  0  0  0  0
  2  3  1  0
  5  6  2  0
  6  1  1  0
  1  2  2  0
  5  7  1  0
  3  4  2  0
  7  8  1  0
  8  9  1  0
  4  5  1  0
  2 10  1  0
M  END

> <chembl_id>
CHEMBL103299

> <chembl_pref_name>
None

$$$$

     RDKit          2D

 10 10  0  0  0  0  0  0  0  0999 V2000
   -1.2708   -0.8292    0.0000 N   0  0  0  0  0  0  0  0  0  0  0  0
   -1.2708    0.5958    0.0000 C   0  0  0  0  0  0  0  0  0  0  0  0
    0.0000    1.3333    0.0000 C   0  0  0  0  0  0  0  0  0  0  0  0
    2.4875    1.3333    0.0000 O   0  0  0  0  0  0  0  0  0  0  0  0
   -2.4958   -1.5417    0.0000 C   0  0  0  0  0  0  0  0  0  0  0  0
    1.2417    0.6125    0.0000 C   0  0  0  0  0  0  0  0  0  0  0  0
   -2.4958    1.3083    0.0000 C   0  0  0  0  0  0  0  0  0  0  0  0
    3.7292    0.6125    0.0000 C   0  0  0  0  0  0  0  0  0  0  0  0
   -3.7375   -0.8000    0.0000 C   0  0  0  0  0  0  0  0  0  0  0  0
   -3.7375    0.5958    0.0000 C   0  0  0  0  0  0  0  0  0  0  0  0
  2  1  1  0
  3  2  1  0
  4  6  1  0
  5  1  2  0
  6  3  1  0
  7  2  2  0
  8  4  1  0
  9  5  1  0
 10  9  2  0
  7 10  1  0
M  END

> <chembl_id>
CHEMBL2105211

> <chembl_pref_name>
METYRIDINE

$$$$

     RDKit          2D

  9  9  0  0  0  0  0  0  0  0999 V2000
   19.1286  -15.8414    0.0000 N   0  0  0  0  0  0  0  0  0  0  0  0
   19.6184  -16.5094    0.0000 N   0  0  0  0  0  0  0  0  0  0  0  0
   19.1369  -17.1813    0.0000 C   0  0  0  0  0  0  0  0  0  0  0  0
   18.3481  -16.9336    0.0000 C   0  0  0  0  0  0  0  0  0  0  0  0
   18.3422  -16.1040    0.0000 C   0  0  0  0  0  0  0  0  0  0  0  0
   17.6850  -17.4243    0.0000 C   0  0  0  0  0  0  0  0  0  0  0  0
   16.9285  -17.0952    0.0000 C   0  0  0  0  0  0  0  0  0  0  0  0
   16.2653  -17.5858    0.0000 C   0  0  0  0  0  0  0  0  0  0  0  0
   15.5088  -17.2567    0.0000 Cl  0  0  0  0  0  0  0  0  0  0  0  0
  1  2  1  0
  2  3  2  0
  3  4  1  0
  4  5  2  0
  1  5  1  0
  4  6  1  0
  6  7  1  0
  7  8  1  0
  8  9  1  0
M  END

> <chembl_id>
CHEMBL3276276

> <chembl_pref_name>
None

$$$$

     RDKit          2D

  9  9  0  0  0  0  0  0  0  0999 V2000
    4.1301    0.7929    0.0000 C   0  0  0  0  0  0  0  0  0  0  0  0
    3.3092    0.7929    0.0000 C   0  0  0  0  0  0  0  0  0  0  0  0
    4.3892    1.5775    0.0000 C   0  0  0  0  0  0  0  0  0  0  0  0
    3.7217    2.0625    0.0000 S   0  0  0  0  0  0  0  0  0  0  0  0
    3.0543    1.5775    0.0000 C   0  0  0  0  0  0  0  0  0  0  0  0
    5.1744    1.8306    0.0000 C   0  0  0  0  0  0  0  0  0  0  0  0
    5.7862    1.2771    0.0000 N   0  0  0  0  0  0  0  0  0  0  0  0
    5.6127    0.4706    0.0000 O   0  0  0  0  0  0  0  0  0  0  0  0
    5.1655    2.6584    0.0000 O   0  0  0  0  0  0  0  0  0  0  0  0
  4  5  1  0
  5  2  2  0
  3  6  1  0
  2  1  1  0
  6  7  1  0
  1  3  2  0
  7  8  1  0
  3  4  1  0
  6  9  2  0
M  END

> <chembl_id>
CHEMBL394887

> <chembl_pref_name>
None

$$$$

     RDKit          2D

  9  9  0  0  0  0  0  0  0  0999 V2000
   17.0152  -13.0083    0.0000 C   0  0  0  0  0  0  0  0  0  0  0  0
   17.0141  -13.8357    0.0000 N   0  0  0  0  0  0  0  0  0  0  0  0
   17.7289  -14.2485    0.0000 C   0  0  0  0  0  0  0  0  0  0  0  0
   18.4453  -13.8352    0.0000 N   0  0  0  0  0  0  0  0  0  0  0  0
   18.4425  -13.0047    0.0000 C   0  0  0  0  0  0  0  0  0  0  0  0
   17.7271  -12.5955    0.0000 C   0  0  0  0  0  0  0  0  0  0  0  0
   17.7287  -15.0735    0.0000 C   0  0  0  0  0  0  0  0  0  0  0  0
   16.3007  -12.5960    0.0000 O   0  0  0  0  0  0  0  0  0  0  0  0
   19.1554  -12.5895    0.0000 C   0  0  0  0  0  0  0  0  0  0  0  0
  4  5  1  0
  2  3  1  0
  5  6  2  0
  6  1  1  0
  1  2  2  0
  3  7  1  0
  3  4  2  0
  1  8  1  0
  5  9  1  0
M  END

> <chembl_id>
CHEMBL1650613

> <chembl_pref_name>
None

$$$$

     RDKit          2D

 10 10  0  0  0  0  0  0  0  0999 V2000
   -3.8098    2.0875    0.0000 C   0  0  0  0  0  0  0  0  0  0  0  0
   -3.8109    1.2602    0.0000 C   0  0  0  0  0  0  0  0  0  0  0  0
   -3.0961    0.8473    0.0000 N   0  0  0  0  0  0  0  0  0  0  0  0
   -2.3797    1.2606    0.0000 C   0  0  0  0  0  0  0  0  0  0  0  0
   -2.3825    2.0912    0.0000 C   0  0  0  0  0  0  0  0  0  0  0  0
   -3.0979    2.5003    0.0000 C   0  0  0  0  0  0  0  0  0  0  0  0
   -1.6645    0.8493    0.0000 O   0  0  0  0  0  0  0  0  0  0  0  0
   -1.6696    2.5064    0.0000 C   0  0  0  0  0  0  0  0  0  0  0  0
   -0.9527    2.9211    0.0000 N   0  0  0  0  0  0  0  0  0  0  0  0
   -4.5257    0.8482    0.0000 C   0  0  0  0  0  0  0  0  0  0  0  0
  2  3  1  0
  5  6  2  0
  6  1  1  0
  1  2  2  0
  4  7  2  0
  3  4  1  0
  5  8  1  0
  8  9  3  0
  4  5  1  0
  2 10  1  0
M  END

> <chembl_id>
CHEMBL1275951

> <chembl_pref_name>
None

$$$$

     RDKit          2D

  8  8  0  0  0  0  0  0  0  0999 V2000
    1.1871   -0.9280    0.0000 N   0  0  0  0  0  0  0  0  0  0  0  0
    0.4726   -0.5155    0.0000 C   0  0  0  0  0  0  0  0  0  0  0  0
   -0.2418   -0.9280    0.0000 C   0  0  0  0  0  0  0  0  0  0  0  0
   -0.9563   -0.5155    0.0000 N   0  0  0  0  0  0  0  0  0  0  0  0
   -0.9563    0.3095    0.0000 C   0  0  0  0  0  0  0  0  0  0  0  0
   -0.2418    0.7220    0.0000 C   0  0  0  0  0  0  0  0  0  0  0  0
   -0.2418    1.5470    0.0000 Cl  0  0  0  0  0  0  0  0  0  0  0  0
    0.4726    0.3095    0.0000 N   0  0  0  0  0  0  0  0  0  0  0  0
  2  1  1  0
  2  3  2  0
  2  8  1  0
  3  4  1  0
  5  4  2  0
  5  6  1  0
  6  7  1  0
  6  8  2  0
M  END

> <chembl_id>
CHEMBL191632

> <chembl_pref_name>
None

$$$$

     RDKit          2D

  9  9  0  0  0  0  0  0  0  0999 V2000
   -3.5830    0.5122    0.0000 C   0  0  0  0  0  0  0  0  0  0  0  0
   -2.7164    0.0132    0.0000 N   0  0  0  0  0  0  0  0  0  0  0  0
   -1.8512    0.5142    0.0000 C   0  0  0  0  0  0  0  0  0  0  0  0
   -0.9846    0.0152    0.0000 C   0  0  0  0  0  0  0  0  0  0  0  0
   -0.8788   -0.9790    0.0000 O   0  0  0  0  0  0  0  0  0  0  0  0
    0.0994   -1.1860    0.0000 C   0  0  0  0  0  0  0  0  0  0  0  0
    0.5984   -0.3194    0.0000 C   0  0  0  0  0  0  0  0  0  0  0  0
   -0.0714    0.4230    0.0000 C   0  0  0  0  0  0  0  0  0  0  0  0
    0.1354    1.4014    0.0000 C   0  0  0  0  0  0  0  0  0  0  0  0
  1  2  1  0
  2  3  1  0
  3  4  1  0
  4  5  1  0
  5  6  1  0
  6  7  2  0
  7  8  1  0
  8  9  1  0
  8  4  2  0
M  END

> <chembl_id>
CHEMBL4573626

> <chembl_pref_name>
None

$$$$

     RDKit          2D

  8  8  0  0  0  0  0  0  0  0999 V2000
    1.7792   -1.8667    0.0000 N   0  0  0  0  0  0  0  0  0  0  0  0
    3.3417   -1.5667    0.0000 O   0  0  0  0  0  0  0  0  0  0  0  0
    2.3042   -1.5667    0.0000 C   0  0  0  0  0  0  0  0  0  0  0  0
    2.8250   -1.8667    0.0000 C   0  0  0  0  0  0  0  0  0  0  0  0
    1.2667   -1.5667    0.0000 C   0  0  0  0  0  0  0  0  0  0  0  0
    2.3042   -0.9667    0.0000 C   0  0  0  0  0  0  0  0  0  0  0  0
    1.2667   -0.9667    0.0000 C   0  0  0  0  0  0  0  0  0  0  0  0
    1.7792   -0.6667    0.0000 C   0  0  0  0  0  0  0  0  0  0  0  0
  2  4  2  0
  3  1  2  0
  4  3  1  0
  5  1  1  0
  6  3  1  0
  7  5  2  0
  8  7  1  0
  8  6  2  0
M  END

> <chembl_id>
CHEMBL274794

> <chembl_pref_name>
2-PYRIDINECARBOXALDEHYDE

$$$$

     RDKit          2D

  9  9  0  0  0  0  0  0  0  0999 V2000
   -3.0458    1.4875    0.0000 N   0  0  0  0  0  0  0  0  0  0  0  0
   -1.9500    0.7208    0.0000 N   0  0  0  0  0  0  0  0  0  0  0  0
   -2.7750    0.7083    0.0000 C   0  0  0  0  0  0  0  0  0  0  0  0
   -1.7083    1.5125    0.0000 C   0  0  0  0  0  0  0  0  0  0  0  0
   -2.3875    1.9833    0.0000 C   0  0  0  0  0  0  0  0  0  0  0  0
    1.0917    0.9708    0.0000 N   0  0  0  0  0  0  0  0  0  0  0  0
   -0.9333    1.7833    0.0000 C   0  0  0  0  0  0  0  0  0  0  0  0
    0.4750    1.5125    0.0000 C   0  0  0  0  0  0  0  0  0  0  0  0
   -0.3083    1.2458    0.0000 C   0  0  0  0  0  0  0  0  0  0  0  0
  2  3  2  0
  3  1  1  0
  4  5  2  0
  5  1  1  0
  6  8  1  0
  7  4  1  0
  8  9  1  0
  9  7  1  0
  2  4  1  0
M  END

> <chembl_id>
CHEMBL91353

> <chembl_pref_name>
HOMOHISTAMINE

$$$$

     RDKit          2D

 10 10  0  0  0  0  0  0  0  0999 V2000
    4.8209   -9.1583    0.0000 C   0  0  0  0  0  0  0  0  0  0  0  0
    6.9625  -10.4001    0.0000 C   0  0  0  0  0  0  0  0  0  0  0  0
    6.2481   -9.9876    0.0000 C   0  0  0  0  0  0  0  0  0  0  0  0
    6.2530   -9.1615    0.0000 C   0  0  0  0  0  0  0  0  0  0  0  0
    5.5394   -8.7491    0.0000 C   0  0  0  0  0  0  0  0  0  0  0  0
    4.8266   -9.9909    0.0000 C   0  0  0  0  0  0  0  0  0  0  0  0
    5.5408  -10.3996    0.0000 C   0  0  0  0  0  0  0  0  0  0  0  0
    7.6709   -9.9876    0.0000 N   0  0  0  0  0  0  0  0  0  0  0  0
    4.1062   -8.7462    0.0000 N   0  0  0  0  0  0  0  0  0  0  0  0
    4.1057   -7.9213    0.0000 C   0  0  0  0  0  0  0  0  0  0  0  0
  2  8  1  0
  2  3  1  0
  3  4  2  0
  4  5  1  0
  5  1  2  0
  1  6  1  0
  6  7  2  0
  7  3  1  0
  1  9  1  0
  9 10  1  0
M  END

> <chembl_id>
CHEMBL4084448

> <chembl_pref_name>
None

$$$$

     RDKit          2D

  7  7  0  0  0  0  0  0  0  0999 V2000
   34.0325   19.6985    0.0000 N   0  0  0  0  0  0  0  0  0  0  0  0
   34.0325   18.8735    0.0000 C   0  0  0  0  0  0  0  0  0  0  0  0
   34.7469   18.4610    0.0000 N   0  0  0  0  0  0  0  0  0  0  0  0
   34.7469   17.6360    0.0000 C   0  0  0  0  0  0  0  0  0  0  0  0
   34.0325   17.2235    0.0000 C   0  0  0  0  0  0  0  0  0  0  0  0
   33.3180   17.6360    0.0000 C   0  0  0  0  0  0  0  0  0  0  0  0
   33.3180   18.4610    0.0000 N   0  0  0  0  0  0  0  0  0  0  0  0
  2  1  1  0
  2  3  1  0
  2  7  2  0
  4  3  2  0
  4  5  1  0
  6  5  2  0
  6  7  1  0
M  END

> <chembl_id>
CHEMBL88580

> <chembl_pref_name>
None

$$$$

     RDKit          2D

  9  9  0  0  0  0  0  0  0  0999 V2000
   -2.6847    0.4036    0.0000 C   0  0  0  0  0  0  0  0  0  0  0  0
   -2.6859   -0.4225    0.0000 C   0  0  0  0  0  0  0  0  0  0  0  0
   -1.9722   -0.8347    0.0000 C   0  0  0  0  0  0  0  0  0  0  0  0
   -1.2568   -0.4220    0.0000 C   0  0  0  0  0  0  0  0  0  0  0  0
   -1.2597    0.4072    0.0000 C   0  0  0  0  0  0  0  0  0  0  0  0
   -1.9740    0.8157    0.0000 N   0  0  0  0  0  0  0  0  0  0  0  0
   -0.5479    0.8217    0.0000 C   0  0  0  0  0  0  0  0  0  0  0  0
    0.1669    0.4126    0.0000 N   0  0  0  0  0  0  0  0  0  0  0  0
    0.8788    0.8271    0.0000 O   0  0  0  0  0  0  0  0  0  0  0  0
  4  5  1  0
  5  6  2  0
  6  1  1  0
  2  3  1  0
  5  7  1  0
  7  8  2  0
  3  4  2  0
  8  9  1  0
  1  2  2  0
M  END

> <chembl_id>
CHEMBL77510

> <chembl_pref_name>
None

$$$$

     RDKit          2D

 10 10  0  0  0  0  0  0  0  0999 V2000
    0.5554   -0.4125    0.0000 O   0  0  0  0  0  0  0  0  0  0  0  0
    1.2699   -4.1250    0.0000 N   0  0  0  0  0  0  0  0  0  0  0  0
    1.2699   -1.6500    0.0000 C   0  0  0  0  0  0  0  0  0  0  0  0
    1.9843   -2.0625    0.0000 C   0  0  0  0  0  0  0  0  0  0  0  0
    1.2699   -0.8250    0.0000 C   0  0  0  0  0  0  0  0  0  0  0  0
    1.2699   -3.3000    0.0000 C   0  0  0  0  0  0  0  0  0  0  0  0
    0.5554   -2.0625    0.0000 C   0  0  0  0  0  0  0  0  0  0  0  0
    1.9843   -2.8875    0.0000 C   0  0  0  0  0  0  0  0  0  0  0  0
    0.5554   -2.8875    0.0000 C   0  0  0  0  0  0  0  0  0  0  0  0
    2.6988   -1.6500    0.0000 C   0  0  0  0  0  0  0  0  0  0  0  0
  1  5  2  0
  2  6  1  0
  3  4  2  0
  3  5  1  0
  3  7  1  0
  4  8  1  0
  4 10  1  0
  6  8  2  0
  6  9  1  0
  7  9  2  0
M  END

> <chembl_id>
CHEMBL1964487

> <chembl_pref_name>
None

$$$$

     RDKit          2D

  8  8  0  0  0  0  0  0  0  0999 V2000
    4.7917  -10.3667    0.0000 N   0  0  0  0  0  0  0  0  0  0  0  0
    5.5125  -11.6125    0.0000 N   0  0  0  0  0  0  0  0  0  0  0  0
    4.7917   -9.5417    0.0000 C   0  0  0  0  0  0  0  0  0  0  0  0
    5.5125  -10.7875    0.0000 C   0  0  0  0  0  0  0  0  0  0  0  0
    4.0917  -10.7875    0.0000 C   0  0  0  0  0  0  0  0  0  0  0  0
    4.0917  -11.6125    0.0000 C   0  0  0  0  0  0  0  0  0  0  0  0
    5.5042   -9.1292    0.0000 C   0  0  0  0  0  0  0  0  0  0  0  0
    4.0792   -9.1292    0.0000 C   0  0  0  0  0  0  0  0  0  0  0  0
  2  4  2  0
  3  1  1  0
  4  1  1  0
  5  1  1  0
  6  5  2  0
  7  3  2  0
  8  3  1  0
  2  6  1  0
M  END

> <chembl_id>
CHEMBL26191

> <chembl_pref_name>
None

$$$$

     RDKit          2D

  8  8  0  0  0  0  0  0  0  0999 V2000
    1.1750   -0.3167    0.0000 C   0  0  0  0  0  0  0  0  0  0  0  0
    0.7625    0.3958    0.0000 C   0  0  0  0  0  0  0  0  0  0  0  0
    2.0042   -0.3167    0.0000 C   0  0  0  0  0  0  0  0  0  0  0  0
    2.4167    0.3958    0.0000 C   0  0  0  0  0  0  0  0  0  0  0  0
    2.4167   -1.0375    0.0000 C   0  0  0  0  0  0  0  0  0  0  0  0
    3.2417   -1.0375    0.0000 C   0  0  0  0  0  0  0  0  0  0  0  0
    3.2417    0.3958    0.0000 C   0  0  0  0  0  0  0  0  0  0  0  0
    3.6542   -0.3167    0.0000 C   0  0  0  0  0  0  0  0  0  0  0  0
  2  1  2  0
  3  1  1  0
  4  3  1  0
  5  3  2  0
  6  5  1  0
  7  4  2  0
  8  6  2  0
  8  7  1  0
M  END

> <chembl_id>
CHEMBL285235

> <chembl_pref_name>
STYRENE

$$$$

     RDKit          2D

 10 11  0  0  0  0  0  0  0  0999 V2000
   -3.7650    4.6945    0.0000 C   0  0  0  0  0  0  0  0  0  0  0  0
   -3.0505    4.2820    0.0000 N   0  0  0  0  0  0  0  0  0  0  0  0
   -3.0505    3.4570    0.0000 C   0  0  0  0  0  0  0  0  0  0  0  0
   -3.7650    3.0445    0.0000 N   0  0  0  0  0  0  0  0  0  0  0  0
   -4.4795    3.4570    0.0000 C   0  0  0  0  0  0  0  0  0  0  0  0
   -4.4795    4.2820    0.0000 C   0  0  0  0  0  0  0  0  0  0  0  0
   -5.2641    4.5370    0.0000 N   0  0  0  0  0  0  0  0  0  0  0  0
   -5.2641    3.2021    0.0000 C   0  0  0  0  0  0  0  0  0  0  0  0
   -5.7490    3.8695    0.0000 C   0  0  0  0  0  0  0  0  0  0  0  0
   -3.7650    5.5195    0.0000 N   0  0  0  0  0  0  0  0  0  0  0  0
  1  2  2  0
  1  6  1  0
  2  3  1  0
  3  4  2  0
  4  5  1  0
  7  6  1  0
  6  5  2  0
  5  8  1  0
  8  9  1  0
  7  9  2  0
  1 10  1  0
M  END

> <chembl_id>
CHEMBL1163018

> <chembl_pref_name>
None

$$$$

     RDKit          2D

  9 10  0  0  1  0  0  0  0  0999 V2000
    6.5000   -5.8417    0.0000 C   0  0  0  0  0  0  0  0  0  0  0  0
    7.0500   -5.2292    0.0000 C   0  0  0  0  0  0  0  0  0  0  0  0
    7.3000   -6.0167    0.0000 C   0  0  0  0  0  0  0  0  0  0  0  0
    5.7125   -6.1042    0.0000 C   0  0  0  0  0  0  0  0  0  0  0  0
    5.0417   -5.6167    0.0000 N   0  0  0  0  0  0  0  0  0  0  0  0
    4.6292   -6.8917    0.0000 N   0  0  0  0  0  0  0  0  0  0  0  0
    4.3792   -6.1042    0.0000 C   0  0  0  0  0  0  0  0  0  0  0  0
    5.4542   -6.8917    0.0000 C   0  0  0  0  0  0  0  0  0  0  0  0
    7.9125   -6.5667    0.0000 N   0  0  0  0  0  0  0  0  0  0  0  0
  2  1  1  0
  3  1  1  0
  1  4  1  6
  5  4  1  0
  6  8  1  0
  7  5  2  0
  8  4  2  0
  3  9  1  6
  3  2  1  0
  7  6  1  0
M  END

> <chembl_id>
CHEMBL294061

> <chembl_pref_name>
None

$$$$

     RDKit          2D

 11 12  0  0  0  0  0  0  0  0999 V2000
   -1.2964    1.4973    0.0000 C   0  0  0  0  0  0  0  0  0  0  0  0
   -2.6111    0.7486    0.0000 C   0  0  0  0  0  0  0  0  0  0  0  0
   -2.6111   -0.7486    0.0000 C   0  0  0  0  0  0  0  0  0  0  0  0
   -1.2964   -1.4973    0.0000 N   0  0  0  0  0  0  0  0  0  0  0  0
    0.0000   -0.7486    0.0000 C   0  0  0  0  0  0  0  0  0  0  0  0
    1.2964   -1.4973    0.0000 C   0  0  0  0  0  0  0  0  0  0  0  0
    2.5929   -0.7486    0.0000 C   0  0  0  0  0  0  0  0  0  0  0  0
    2.5929    0.7486    0.0000 C   0  0  0  0  0  0  0  0  0  0  0  0
    1.2964    1.4973    0.0000 C   0  0  0  0  0  0  0  0  0  0  0  0
    0.0000    0.7486    0.0000 C   0  0  0  0  0  0  0  0  0  0  0  0
    1.2964    2.6973    0.0000 O   0  0  0  0  0  0  0  0  0  0  0  0
  1  2  2  0
  2  3  1  0
  3  4  2  0
  4  5  1  0
  5  6  1  0
  6  7  1  0
  7  8  1  0
  8  9  1  0
  9 10  1  0
  1 10  1  0
  5 10  2  0
  9 11  2  0
M  END

> <chembl_id>
CHEMBL3586000

> <chembl_pref_name>
None

$$$$

     RDKit          2D

  9  9  0  0  0  0  0  0  0  0999 V2000
    2.5375   -3.3917    0.0000 C   0  0  0  0  0  0  0  0  0  0  0  0
    1.8167   -2.9792    0.0000 N   0  0  0  0  0  0  0  0  0  0  0  0
    3.2539   -3.8017    0.0000 S   0  0  0  0  0  0  0  0  0  0  0  0
    1.1042   -3.4000    0.0000 C   0  0  0  0  0  0  0  0  0  0  0  0
    0.3917   -2.9875    0.0000 C   0  0  0  0  0  0  0  0  0  0  0  0
    1.1042   -4.2292    0.0000 C   0  0  0  0  0  0  0  0  0  0  0  0
   -0.3208   -3.4000    0.0000 C   0  0  0  0  0  0  0  0  0  0  0  0
    0.3917   -4.6417    0.0000 C   0  0  0  0  0  0  0  0  0  0  0  0
   -0.3208   -4.2292    0.0000 C   0  0  0  0  0  0  0  0  0  0  0  0
  2  1  2  0
  3  1  2  0
  4  2  1  0
  5  4  2  0
  6  4  1  0
  7  5  1  0
  8  6  2  0
  9  8  1  0
  7  9  2  0
M  END

> <chembl_id>
CHEMBL309036

> <chembl_pref_name>
PHENYLISOTHIOCYANATE

$$$$

     RDKit          2D

  8  8  0  0  0  0  0  0  0  0999 V2000
   11.8122   -7.4244    0.0000 C   0  0  0  0  0  0  0  0  0  0  0  0
   11.1031   -7.8330    0.0000 N   0  0  0  0  0  0  0  0  0  0  0  0
   10.3941   -7.4244    0.0000 C   0  0  0  0  0  0  0  0  0  0  0  0
   10.3941   -6.6072    0.0000 C   0  0  0  0  0  0  0  0  0  0  0  0
   11.1031   -6.1986    0.0000 C   0  0  0  0  0  0  0  0  0  0  0  0
   11.8122   -6.6072    0.0000 N   0  0  0  0  0  0  0  0  0  0  0  0
   12.5213   -7.8330    0.0000 S   0  0  0  0  0  0  0  0  0  0  0  0
    9.6891   -7.8330    0.0000 S   0  0  0  0  0  0  0  0  0  0  0  0
  1  2  1  0
  2  3  2  0
  3  4  1  0
  4  5  2  0
  5  6  1  0
  1  6  2  0
  1  7  1  0
  3  8  1  0
M  END

> <chembl_id>
CHEMBL3934582

> <chembl_pref_name>
None

$$$$

     RDKit          2D

 10 10  0  0  0  0  0  0  0  0999 V2000
    1.0667   -2.7542    0.0000 N   0  0  0  0  0  0  0  0  0  0  0  0
    1.7750    0.1458    0.0000 N   0  0  0  0  0  0  0  0  0  0  0  0
    1.0625   -0.2750    0.0000 C   0  0  0  0  0  0  0  0  0  0  0  0
    1.0667   -1.1000    0.0000 C   0  0  0  0  0  0  0  0  0  0  0  0
    0.3542   -2.3417    0.0000 C   0  0  0  0  0  0  0  0  0  0  0  0
    1.7875   -2.3417    0.0000 C   0  0  0  0  0  0  0  0  0  0  0  0
    1.7667    0.9708    0.0000 C   0  0  0  0  0  0  0  0  0  0  0  0
    2.4917   -0.2667    0.0000 C   0  0  0  0  0  0  0  0  0  0  0  0
    1.7875   -1.5125    0.0000 C   0  0  0  0  0  0  0  0  0  0  0  0
    0.3542   -1.5167    0.0000 C   0  0  0  0  0  0  0  0  0  0  0  0
  2  3  1  0
  3  4  1  0
  4  9  2  0
  5  1  1  0
  6  1  2  0
  7  2  1  0
  8  2  1  0
  9  6  1  0
 10  5  2  0
 10  4  1  0
M  END

> <chembl_id>
CHEMBL141989

> <chembl_pref_name>
None

$$$$

     RDKit          2D

  8  8  0  0  0  0  0  0  0  0999 V2000
    5.4082  -17.2874    0.0000 C   0  0  0  0  0  0  0  0  0  0  0  0
    4.9934  -18.0006    0.0000 C   0  0  0  0  0  0  0  0  0  0  0  0
    4.1730  -18.0006    0.0000 C   0  0  0  0  0  0  0  0  0  0  0  0
    3.7582  -17.2874    0.0000 C   0  0  0  0  0  0  0  0  0  0  0  0
    4.1730  -16.5743    0.0000 C   0  0  0  0  0  0  0  0  0  0  0  0
    4.9934  -16.5743    0.0000 C   0  0  0  0  0  0  0  0  0  0  0  0
    2.9332  -17.2874    0.0000 F   0  0  0  0  0  0  0  0  0  0  0  0
    6.2332  -17.2874    0.0000 F   0  0  0  0  0  0  0  0  0  0  0  0
  1  2  1  0
  2  3  2  0
  3  4  1  0
  4  5  2  0
  5  6  1  0
  1  6  2  0
  4  7  1  0
  1  8  1  0
M  END

> <chembl_id>
CHEMBL496192

> <chembl_pref_name>
None

$$$$

     RDKit          2D

  7  7  0  0  0  0  0  0  0  0999 V2000
    6.8417   -6.7792    0.0000 N   0  0  0  0  0  0  0  0  0  0  0  0
    7.1292   -7.5500    0.0000 C   0  0  0  0  0  0  0  0  0  0  0  0
    5.8000   -7.6167    0.0000 N   0  0  0  0  0  0  0  0  0  0  0  0
    6.4917   -8.0667    0.0000 S   0  0  0  0  0  0  0  0  0  0  0  0
    6.0167   -6.8167    0.0000 C   0  0  0  0  0  0  0  0  0  0  0  0
    7.9292   -7.7667    0.0000 N   0  0  0  0  0  0  0  0  0  0  0  0
    5.5000   -6.1750    0.0000 C   0  0  0  0  0  0  0  0  0  0  0  0
  2  1  2  0
  3  5  2  0
  4  2  1  0
  5  1  1  0
  6  2  1  0
  7  5  1  0
  3  4  1  0
M  END

> <chembl_id>
CHEMBL47803

> <chembl_pref_name>
None

$$$$

     RDKit          2D

 10 10  0  0  0  0  0  0  0  0999 V2000
    3.0938   -4.6541    0.0000 C   0  0  0  0  0  0  0  0  0  0  0  0
    3.8081   -4.2380    0.0000 C   0  0  0  0  0  0  0  0  0  0  0  0
    3.8038   -3.4148    0.0000 C   0  0  0  0  0  0  0  0  0  0  0  0
    4.5101   -3.0081    0.0000 N   0  0  0  0  0  0  0  0  0  0  0  0
    4.5097   -2.1838    0.0000 C   0  0  0  0  0  0  0  0  0  0  0  0
    5.2148   -1.7772    0.0000 O   0  0  0  0  0  0  0  0  0  0  0  0
    2.3363   -4.3187    0.0000 O   0  0  0  0  0  0  0  0  0  0  0  0
    1.7855   -4.9353    0.0000 C   0  0  0  0  0  0  0  0  0  0  0  0
    2.2017   -5.6497    0.0000 C   0  0  0  0  0  0  0  0  0  0  0  0
    3.0096   -5.4745    0.0000 C   0  0  0  0  0  0  0  0  0  0  0  0
  1  2  1  0
  2  3  2  0
  3  4  1  0
  4  5  1  0
  5  6  2  0
  1  7  1  0
  7  8  1  0
  8  9  2  0
  9 10  1  0
 10  1  2  0
M  END

> <chembl_id>
CHEMBL3277703

> <chembl_pref_name>
None

$$$$

     RDKit          2D

  9  9  0  0  0  0  0  0  0  0999 V2000
    8.3130   -9.1779    0.0000 C   0  0  0  0  0  0  0  0  0  0  0  0
    8.2975   -8.3609    0.0000 C   0  0  0  0  0  0  0  0  0  0  0  0
    7.5822   -7.9658    0.0000 C   0  0  0  0  0  0  0  0  0  0  0  0
    7.5666   -7.1488    0.0000 C   0  0  0  0  0  0  0  0  0  0  0  0
    8.2664   -6.7268    0.0000 C   0  0  0  0  0  0  0  0  0  0  0  0
    8.9818   -7.1219    0.0000 C   0  0  0  0  0  0  0  0  0  0  0  0
    8.9973   -7.9389    0.0000 C   0  0  0  0  0  0  0  0  0  0  0  0
    8.3286   -9.9950    0.0000 N   0  0  0  0  0  0  0  0  0  0  0  0
    8.2509   -5.9098    0.0000 F   0  0  0  0  0  0  0  0  0  0  0  0
  1  2  1  0
  2  3  1  0
  3  4  2  0
  4  5  1  0
  5  6  2  0
  6  7  1  0
  2  7  2  0
  1  8  3  0
  5  9  1  0
M  END

> <chembl_id>
CHEMBL3248213

> <chembl_pref_name>
None

$$$$

     RDKit          2D

 11 12  0  0  0  0  0  0  0  0999 V2000
    2.4693   -1.4521    0.0000 O   0  0  0  0  0  0  0  0  0  0  0  0
    2.4693    1.4521    0.0000 N   0  0  0  0  0  0  0  0  0  0  0  0
    3.5088   -0.4125    0.0000 C   0  0  0  0  0  0  0  0  0  0  0  0
    3.5088    0.4125    0.0000 C   0  0  0  0  0  0  0  0  0  0  0  0
    2.7242   -0.6674    0.0000 C   0  0  0  0  0  0  0  0  0  0  0  0
    2.7242    0.6674    0.0000 C   0  0  0  0  0  0  0  0  0  0  0  0
    2.2393    0.0000    0.0000 C   0  0  0  0  0  0  0  0  0  0  0  0
    4.2233   -0.8250    0.0000 C   0  0  0  0  0  0  0  0  0  0  0  0
    4.2233    0.8250    0.0000 C   0  0  0  0  0  0  0  0  0  0  0  0
    4.9378   -0.4125    0.0000 C   0  0  0  0  0  0  0  0  0  0  0  0
    4.9378    0.4125    0.0000 C   0  0  0  0  0  0  0  0  0  0  0  0
  1  5  2  0
  2  6  1  0
  3  4  2  0
  3  5  1  0
  3  8  1  0
  4  6  1  0
  4  9  1  0
  5  7  1  0
  6  7  1  0
  8 10  2  0
  9 11  2  0
 10 11  1  0
M  END

> <chembl_id>
CHEMBL2008539

> <chembl_pref_name>
None

$$$$

     RDKit          2D

 10 10  0  0  0  0  0  0  0  0999 V2000
   -3.4735  -13.8427    0.0000 N   0  0  0  0  0  0  0  0  0  0  0  0
   -2.8010  -13.3648    0.0000 C   0  0  0  0  0  0  0  0  0  0  0  0
   -3.0460  -12.5769    0.0000 N   0  0  0  0  0  0  0  0  0  0  0  0
   -3.8735  -12.5679    0.0000 C   0  0  0  0  0  0  0  0  0  0  0  0
   -4.1336  -13.3499    0.0000 C   0  0  0  0  0  0  0  0  0  0  0  0
   -2.0171  -13.6307    0.0000 C   0  0  0  0  0  0  0  0  0  0  0  0
   -1.3970  -13.0866    0.0000 C   0  0  0  0  0  0  0  0  0  0  0  0
   -0.6157  -13.3516    0.0000 C   0  0  0  0  0  0  0  0  0  0  0  0
   -0.4538  -14.1616    0.0000 O   0  0  0  0  0  0  0  0  0  0  0  0
    0.0052  -12.8084    0.0000 O   0  0  0  0  0  0  0  0  0  0  0  0
  1  2  1  0
  2  6  1  0
  6  7  2  0
  7  8  1  0
  2  3  2  0
  3  4  1  0
  8  9  1  0
  8 10  2  0
  4  5  2  0
  5  1  1  0
M  END

> <chembl_id>
CHEMBL1789737

> <chembl_pref_name>
None

$$$$

     RDKit          2D

 10 10  0  0  0  0  0  0  0  0999 V2000
   -3.3982    0.2312    0.0000 C   0  0  0  0  0  0  0  0  0  0  0  0
   -2.5328    0.7320    0.0000 O   0  0  0  0  0  0  0  0  0  0  0  0
   -1.6662    0.2330    0.0000 C   0  0  0  0  0  0  0  0  0  0  0  0
   -0.8008    0.7340    0.0000 C   0  0  0  0  0  0  0  0  0  0  0  0
   -0.8022    1.7340    0.0000 N   0  0  0  0  0  0  0  0  0  0  0  0
    0.0656    0.2350    0.0000 C   0  0  0  0  0  0  0  0  0  0  0  0
    0.1714   -0.7592    0.0000 C   0  0  0  0  0  0  0  0  0  0  0  0
    1.1498   -0.9662    0.0000 C   0  0  0  0  0  0  0  0  0  0  0  0
    1.6486   -0.0996    0.0000 C   0  0  0  0  0  0  0  0  0  0  0  0
    0.9788    0.6428    0.0000 O   0  0  0  0  0  0  0  0  0  0  0  0
  1  2  1  0
  2  3  1  0
  3  4  1  0
  4  5  1  0
  4  6  1  0
  6  7  2  0
  7  8  1  0
  8  9  2  0
  9 10  1  0
 10  6  1  0
M  END

> <chembl_id>
CHEMBL4539200

> <chembl_pref_name>
None

$$$$

     RDKit          2D

  9  9  0  0  0  0  0  0  0  0999 V2000
    4.9292   -4.3792    0.0000 N   0  0  0  0  0  0  0  0  0  0  0  0
    5.6417   -4.7917    0.0000 C   0  0  0  0  0  0  0  0  0  0  0  0
    4.9292   -6.0292    0.0000 N   0  0  0  0  0  0  0  0  0  0  0  0
    6.3542   -4.3792    0.0000 S   0  0  0  0  0  0  0  0  0  0  0  0
    5.6417   -5.6167    0.0000 C   0  0  0  0  0  0  0  0  0  0  0  0
    4.2167   -4.7917    0.0000 C   0  0  0  0  0  0  0  0  0  0  0  0
    4.2167   -5.6167    0.0000 C   0  0  0  0  0  0  0  0  0  0  0  0
    7.0667   -4.7917    0.0000 C   0  0  0  0  0  0  0  0  0  0  0  0
    7.7875   -4.3792    0.0000 C   0  0  0  0  0  0  0  0  0  0  0  0
  2  1  2  0
  3  7  1  0
  4  2  1  0
  5  2  1  0
  6  1  1  0
  7  6  2  0
  8  4  1  0
  9  8  1  0
  3  5  2  0
M  END

> <chembl_id>
CHEMBL93555

> <chembl_pref_name>
None

$$$$

     RDKit          2D

 10 10  0  0  0  0  0  0  0  0999 V2000
    1.2026   -1.4222    0.0000 C   0  0  0  0  0  0  0  0  0  0  0  0
    0.9956   -0.4438    0.0000 N   0  0  0  0  0  0  0  0  0  0  0  0
    1.6656    0.2986    0.0000 C   0  0  0  0  0  0  0  0  0  0  0  0
    1.1666    1.1652    0.0000 N   0  0  0  0  0  0  0  0  0  0  0  0
    0.1882    0.9582    0.0000 N   0  0  0  0  0  0  0  0  0  0  0  0
    0.0826   -0.0360    0.0000 C   0  0  0  0  0  0  0  0  0  0  0  0
   -0.7840   -0.5350    0.0000 C   0  0  0  0  0  0  0  0  0  0  0  0
   -0.7852   -1.5350    0.0000 N   0  0  0  0  0  0  0  0  0  0  0  0
   -1.6494   -0.0340    0.0000 C   0  0  0  0  0  0  0  0  0  0  0  0
   -2.5160   -0.5332    0.0000 O   0  0  0  0  0  0  0  0  0  0  0  0
  1  2  1  0
  2  3  1  0
  3  4  2  0
  4  5  1  0
  5  6  2  0
  6  7  1  0
  7  8  1  0
  7  9  1  0
  9 10  1  0
  6  2  1  0
M  END

> <chembl_id>
CHEMBL4580806

> <chembl_pref_name>
None

$$$$

     RDKit          2D

  9  9  0  0  0  0  0  0  0  0999 V2000
   20.6724    0.3285    0.0000 C   0  0  0  0  0  0  0  0  0  0  0  0
   21.3821    0.7450    0.0000 C   0  0  0  0  0  0  0  0  0  0  0  0
   22.0984    0.3398    0.0000 C   0  0  0  0  0  0  0  0  0  0  0  0
   20.6748   -0.4932    0.0000 O   0  0  0  0  0  0  0  0  0  0  0  0
   19.9561    0.7378    0.0000 C   0  0  0  0  0  0  0  0  0  0  0  0
   19.2032    0.3996    0.0000 C   0  0  0  0  0  0  0  0  0  0  0  0
   18.6474    1.0092    0.0000 C   0  0  0  0  0  0  0  0  0  0  0  0
   19.0567    1.7255    0.0000 C   0  0  0  0  0  0  0  0  0  0  0  0
   19.8650    1.5603    0.0000 S   0  0  0  0  0  0  0  0  0  0  0  0
  1  2  1  0
  2  3  2  0
  1  4  2  0
  5  6  2  0
  6  7  1  0
  7  8  2  0
  8  9  1  0
  5  9  1  0
  1  5  1  0
M  END

> <chembl_id>
CHEMBL405826

> <chembl_pref_name>
None

$$$$

     RDKit          2D

  8  8  0  0  0  0  0  0  0  0999 V2000
    2.0367   -0.9968    0.0000 C   0  0  0  0  0  0  0  0  0  0  0  0
    2.7432   -1.4074    0.0000 C   0  0  0  0  0  0  0  0  0  0  0  0
    2.7395   -2.2256    0.0000 N   0  0  0  0  0  0  0  0  0  0  0  0
    3.4451   -2.6362    0.0000 C   0  0  0  0  0  0  0  0  0  0  0  0
    4.1550   -2.2297    0.0000 C   0  0  0  0  0  0  0  0  0  0  0  0
    4.1548   -1.4082    0.0000 C   0  0  0  0  0  0  0  0  0  0  0  0
    3.4485   -1.0013    0.0000 N   0  0  0  0  0  0  0  0  0  0  0  0
    1.3292   -0.5830    0.0000 N   0  0  0  0  0  0  0  0  0  0  0  0
  1  2  1  0
  2  3  2  0
  3  4  1  0
  4  5  2  0
  5  6  1  0
  6  7  2  0
  7  2  1  0
  1  8  3  0
M  END

> <chembl_id>
CHEMBL3352946

> <chembl_pref_name>
None

$$$$

     RDKit          2D

  9  9  0  0  0  0  0  0  0  0999 V2000
    2.2917   -0.7667    0.0000 C   0  0  0  0  0  0  0  0  0  0  0  0
    3.0125   -1.1792    0.0000 C   0  0  0  0  0  0  0  0  0  0  0  0
    1.5792   -1.1875    0.0000 C   0  0  0  0  0  0  0  0  0  0  0  0
    2.2917    0.0583    0.0000 S   0  0  0  0  0  0  0  0  0  0  0  0
    2.2917   -2.4250    0.0000 C   0  0  0  0  0  0  0  0  0  0  0  0
    3.0125   -2.0125    0.0000 C   0  0  0  0  0  0  0  0  0  0  0  0
    1.5792   -2.0125    0.0000 C   0  0  0  0  0  0  0  0  0  0  0  0
    3.7250   -0.7667    0.0000 C   0  0  0  0  0  0  0  0  0  0  0  0
    0.8667   -0.7750    0.0000 C   0  0  0  0  0  0  0  0  0  0  0  0
  2  1  2  0
  3  1  1  0
  4  1  1  0
  5  7  1  0
  6  2  1  0
  7  3  2  0
  8  2  1  0
  9  3  1  0
  6  5  2  0
M  END

> <chembl_id>
CHEMBL321211

> <chembl_pref_name>
None

$$$$

     RDKit          2D

  9  9  0  0  0  0  0  0  0  0999 V2000
    1.6417   -2.6542    0.0000 C   0  0  0  0  0  0  0  0  0  0  0  0
    2.2125   -2.4750    0.0000 N   0  0  0  0  0  0  0  0  0  0  0  0
    1.1542   -2.3042    0.0000 N   0  0  0  0  0  0  0  0  0  0  0  0
    1.4542   -3.2292    0.0000 N   0  0  0  0  0  0  0  0  0  0  0  0
    0.8500   -3.2292    0.0000 C   0  0  0  0  0  0  0  0  0  0  0  0
    2.6542   -2.8750    0.0000 O   0  0  0  0  0  0  0  0  0  0  0  0
    2.3375   -1.8875    0.0000 O   0  0  0  0  0  0  0  0  0  0  0  0
    0.6667   -2.6542    0.0000 C   0  0  0  0  0  0  0  0  0  0  0  0
    1.1542   -1.7042    0.0000 C   0  0  0  0  0  0  0  0  0  0  0  0
  2  1  1  0
  3  1  1  0
  4  1  2  0
  5  4  1  0
  6  2  1  0
  7  2  2  0
  8  3  1  0
  9  3  1  0
  5  8  2  0
M  CHG  2   2   1   6  -1
M  END

> <chembl_id>
CHEMBL303522

> <chembl_pref_name>
None

$$$$
 
     RDKit          2D

 11 12  0  0  0  0  0  0  0  0999 V2000
   -0.4714    1.9152    0.0000 N   0  0  0  0  0  0  0  0  0  0  0  0
   -1.1859    1.5027    0.0000 C   0  0  0  0  0  0  0  0  0  0  0  0
   -1.1859    0.6777    0.0000 C   0  0  0  0  0  0  0  0  0  0  0  0
   -0.4714    0.2652    0.0000 C   0  0  0  0  0  0  0  0  0  0  0  0
    0.2430    0.6777    0.0000 C   0  0  0  0  0  0  0  0  0  0  0  0
    0.2430    1.5027    0.0000 C   0  0  0  0  0  0  0  0  0  0  0  0
   -0.4714   -0.5598    0.0000 N   0  0  0  0  0  0  0  0  0  0  0  0
   -1.1389   -1.0448    0.0000 C   0  0  0  0  0  0  0  0  0  0  0  0
   -0.8839   -1.8294    0.0000 C   0  0  0  0  0  0  0  0  0  0  0  0
   -0.0589   -1.8294    0.0000 C   0  0  0  0  0  0  0  0  0  0  0  0
    0.1960   -1.0448    0.0000 C   0  0  0  0  0  0  0  0  0  0  0  0
  1  2  1  0
  2  3  2  0
  3  4  1  0
  4  5  2  0
  5  6  1  0
  1  6  2  0
  4  7  1  0
  7  8  1  0
  7 11  1  0
  8  9  1  0
  9 10  1  0
 10 11  1  0
M  END

> <chembl_id>
CHEMBL4754833

> <chembl_pref_name>
None

$$$$

     RDKit          2D

  8  8  0  0  0  0  0  0  0  0999 V2000
    5.1042   -2.1917    0.0000 S   0  0  0  0  0  0  0  0  0  0  0  0
    4.3917   -2.6042    0.0000 C   0  0  0  0  0  0  0  0  0  0  0  0
    5.8250   -2.6042    0.0000 C   0  0  0  0  0  0  0  0  0  0  0  0
    4.3917   -3.4292    0.0000 C   0  0  0  0  0  0  0  0  0  0  0  0
    3.6792   -2.1917    0.0000 C   0  0  0  0  0  0  0  0  0  0  0  0
    3.6792   -3.8417    0.0000 C   0  0  0  0  0  0  0  0  0  0  0  0
    2.9625   -2.6042    0.0000 C   0  0  0  0  0  0  0  0  0  0  0  0
    2.9625   -3.4292    0.0000 C   0  0  0  0  0  0  0  0  0  0  0  0
  2  1  1  0
  3  1  1  0
  4  2  1  0
  5  2  2  0
  6  4  2  0
  7  5  1  0
  8  7  2  0
  6  8  1  0
M  END

> <chembl_id>
CHEMBL192899

> <chembl_pref_name>
METHYLPHENYLSULFIDE

$$$$

     RDKit          2D

 11 11  0  0  0  0  0  0  0  0999 V2000
    5.0046    0.0000    0.0000 N   0  0  0  0  0  0  0  0  0  0  0  0
    2.8576   -1.2411    0.0000 C   0  0  0  0  0  0  0  0  0  0  0  0
    4.2889   -0.4154    0.0000 C   0  0  0  0  0  0  0  0  0  0  0  0
    3.5733   -1.6515    0.0000 C   0  0  0  0  0  0  0  0  0  0  0  0
    2.8576   -0.4154    0.0000 C   0  0  0  0  0  0  0  0  0  0  0  0
    4.2889   -1.2411    0.0000 C   0  0  0  0  0  0  0  0  0  0  0  0
    3.5733    0.0000    0.0000 C   0  0  0  0  0  0  0  0  0  0  0  0
    2.1470   -1.6515    0.0000 C   0  0  0  0  0  0  0  0  0  0  0  0
    1.4313   -1.2411    0.0000 C   0  0  0  0  0  0  0  0  0  0  0  0
    0.7157   -1.6515    0.0000 C   0  0  0  0  0  0  0  0  0  0  0  0
    0.0000   -1.2411    0.0000 C   0  0  0  0  0  0  0  0  0  0  0  0
  1  3  1  0
  2  4  2  0
  2  5  1  0
  2  8  1  0
  3  6  2  0
  3  7  1  0
  4  6  1  0
  5  7  2  0
  8  9  1  0
  9 10  1  0
 10 11  1  0
M  END

> <chembl_id>
CHEMBL3181902

> <chembl_pref_name>
None

$$$$

     RDKit          2D

 10 10  0  0  0  0  0  0  0  0999 V2000
   15.8736  -19.6708    0.0000 C   0  0  0  0  0  0  0  0  0  0  0  0
   15.8724  -20.4982    0.0000 C   0  0  0  0  0  0  0  0  0  0  0  0
   16.5872  -20.9110    0.0000 C   0  0  0  0  0  0  0  0  0  0  0  0
   17.3037  -20.4977    0.0000 C   0  0  0  0  0  0  0  0  0  0  0  0
   17.3008  -19.6672    0.0000 C   0  0  0  0  0  0  0  0  0  0  0  0
   16.5854  -19.2580    0.0000 C   0  0  0  0  0  0  0  0  0  0  0  0
   16.5830  -18.4330    0.0000 C   0  0  0  0  0  0  0  0  0  0  0  0
   17.2962  -18.0184    0.0000 N   0  0  0  0  0  0  0  0  0  0  0  0
   18.0188  -20.9091    0.0000 F   0  0  0  0  0  0  0  0  0  0  0  0
   16.5870  -21.7360    0.0000 C   0  0  0  0  0  0  0  0  0  0  0  0
  2  3  1  0
  5  6  2  0
  6  1  1  0
  1  2  2  0
  6  7  1  0
  3  4  2  0
  7  8  1  0
  4  9  1  0
  4  5  1  0
  3 10  1  0
M  END

> <chembl_id>
CHEMBL386352

> <chembl_pref_name>
None

$$$$

     RDKit          2D

 11 11  0  0  0  0  0  0  0  0999 V2000
    0.3375   -3.2875    0.0000 C   0  0  0  0  0  0  0  0  0  0  0  0
    0.3292   -2.4542    0.0000 C   0  0  0  0  0  0  0  0  0  0  0  0
    1.0500   -2.0417    0.0000 C   0  0  0  0  0  0  0  0  0  0  0  0
    1.0500   -3.7000    0.0000 O   0  0  0  0  0  0  0  0  0  0  0  0
    1.7542    0.0250    0.0000 O   0  0  0  0  0  0  0  0  0  0  0  0
   -0.3833   -3.7000    0.0000 N   0  0  0  0  0  0  0  0  0  0  0  0
    1.7625   -0.8000    0.0000 C   0  0  0  0  0  0  0  0  0  0  0  0
    1.0500   -1.2167    0.0000 C   0  0  0  0  0  0  0  0  0  0  0  0
   -0.3833   -2.0417    0.0000 C   0  0  0  0  0  0  0  0  0  0  0  0
   -0.3833   -1.2167    0.0000 C   0  0  0  0  0  0  0  0  0  0  0  0
    0.3292   -0.8042    0.0000 C   0  0  0  0  0  0  0  0  0  0  0  0
  2  1  1  0
  3  2  2  0
  4  1  2  0
  5  7  2  0
  6  1  1  0
  7  8  1  0
  8  3  1  0
  9  2  1  0
 10  9  2  0
 11 10  1  0
  8 11  2  0
M  END

> <chembl_id>
CHEMBL43885

> <chembl_pref_name>
None

$$$$

     RDKit          2D

  9  9  0  0  0  0  0  0  0  0999 V2000
   10.1228   -5.9912    0.0000 C   0  0  0  0  0  0  0  0  0  0  0  0
   10.1228   -5.1662    0.0000 C   0  0  0  0  0  0  0  0  0  0  0  0
    9.7103   -7.2595    0.0000 S   0  0  0  0  0  0  0  0  0  0  0  0
    9.4559   -6.4758    0.0000 C   0  0  0  0  0  0  0  0  0  0  0  0
   10.7930   -6.4758    0.0000 C   0  0  0  0  0  0  0  0  0  0  0  0
   10.5353   -7.2595    0.0000 C   0  0  0  0  0  0  0  0  0  0  0  0
    9.4113   -4.7538    0.0000 O   0  0  0  0  0  0  0  0  0  0  0  0
   10.8378   -4.7538    0.0000 N   0  0  0  0  0  0  0  0  0  0  0  0
   10.8378   -3.9288    0.0000 N   0  0  0  0  0  0  0  0  0  0  0  0
  2  1  1  0
  3  4  1  0
  4  1  2  0
  5  1  1  0
  6  5  2  0
  7  2  2  0
  8  2  1  0
  9  8  1  0
  6  3  1  0
M  END

> <chembl_id>
CHEMBL3091845

> <chembl_pref_name>
None

$$$$

     RDKit          2D

 11 11  0  0  0  0  0  0  0  0999 V2000
    2.1667   -1.8417    0.0000 C   0  0  0  0  0  0  0  0  0  0  0  0
    2.1625   -2.6667    0.0000 C   0  0  0  0  0  0  0  0  0  0  0  0
    1.4500   -0.6125    0.0000 N   0  0  0  0  0  0  0  0  0  0  0  0
    0.7375   -1.0292    0.0000 C   0  0  0  0  0  0  0  0  0  0  0  0
    1.4417    0.2125    0.0000 N   0  0  0  0  0  0  0  0  0  0  0  0
    2.1667   -1.0167    0.0000 C   0  0  0  0  0  0  0  0  0  0  0  0
    0.0167   -0.6167    0.0000 C   0  0  0  0  0  0  0  0  0  0  0  0
    0.7375   -1.8542    0.0000 C   0  0  0  0  0  0  0  0  0  0  0  0
   -0.6958   -1.0292    0.0000 C   0  0  0  0  0  0  0  0  0  0  0  0
    0.0167   -2.2667    0.0000 C   0  0  0  0  0  0  0  0  0  0  0  0
   -0.6958   -1.8542    0.0000 C   0  0  0  0  0  0  0  0  0  0  0  0
  2  1  3  0
  3  6  1  0
  4  3  1  0
  5  3  1  0
  6  1  1  0
  7  4  2  0
  8  4  1  0
  9  7  1  0
 10  8  2  0
 11 10  1  0
  9 11  2  0
M  END

> <chembl_id>
CHEMBL328446

> <chembl_pref_name>
None

$$$$

     RDKit          2D

 10 10  0  0  0  0  0  0  0  0999 V2000
   11.0240   -7.1726    0.0000 C   0  0  0  0  0  0  0  0  0  0  0  0
   11.7441   -7.5752    0.0000 C   0  0  0  0  0  0  0  0  0  0  0  0
   11.7557   -8.4003    0.0000 C   0  0  0  0  0  0  0  0  0  0  0  0
   11.0474   -8.8230    0.0000 C   0  0  0  0  0  0  0  0  0  0  0  0
   10.3272   -8.4205    0.0000 C   0  0  0  0  0  0  0  0  0  0  0  0
   10.3157   -7.5954    0.0000 C   0  0  0  0  0  0  0  0  0  0  0  0
   11.0124   -6.3475    0.0000 O   0  0  0  0  0  0  0  0  0  0  0  0
   11.0590   -9.6481    0.0000 O   0  0  0  0  0  0  0  0  0  0  0  0
   10.3505  -10.0707    0.0000 C   0  0  0  0  0  0  0  0  0  0  0  0
   10.3622  -10.8960    0.0000 C   0  0  0  0  0  0  0  0  0  0  0  0
  1  2  1  0
  2  3  2  0
  3  4  1  0
  4  5  2  0
  5  6  1  0
  1  6  2  0
  1  7  1  0
  9 10  1  0
  8  9  1  0
  4  8  1  0
M  END

> <chembl_id>
CHEMBL225153

> <chembl_pref_name>
1-hydroxy-4-ethoxybenzene

$$$$

     RDKit          2D

 10 10  0  0  0  0  0  0  0  0999 V2000
    2.5973   -1.5031    0.0000 C   0  0  0  0  0  0  0  0  0  0  0  0
    1.2990   -0.7500    0.0000 C   0  0  0  0  0  0  0  0  0  0  0  0
    3.6375   -0.9049    0.0000 C   0  0  0  0  0  0  0  0  0  0  0  0
    3.6331   -3.6060    0.0000 N   0  0  0  0  0  0  0  0  0  0  0  0
    2.5951   -3.0039    0.0000 C   0  0  0  0  0  0  0  0  0  0  0  0
    1.2990    0.7500    0.0000 C   0  0  0  0  0  0  0  0  0  0  0  0
    0.0000   -1.5000    0.0000 C   0  0  0  0  0  0  0  0  0  0  0  0
    0.0000    1.5000    0.0000 C   0  0  0  0  0  0  0  0  0  0  0  0
   -1.2990   -0.7500    0.0000 C   0  0  0  0  0  0  0  0  0  0  0  0
   -1.2990    0.7500    0.0000 C   0  0  0  0  0  0  0  0  0  0  0  0
  1  2  1  0
  1  3  2  0
  1  5  1  0
  4  5  1  0
  2  6  1  0
  2  7  2  0
  6  8  2  0
  7  9  1  0
  8 10  1  0
  9 10  2  0
M  END

> <chembl_id>
CHEMBL89394

> <chembl_pref_name>
None

$$$$

     RDKit          2D

 11 12  0  0  0  0  0  0  0  0999 V2000
   -2.1166   -1.0764    0.0000 N   0  0  0  0  0  0  0  0  0  0  0  0
   -1.2502   -1.5758    0.0000 C   0  0  0  0  0  0  0  0  0  0  0  0
   -0.3846   -1.0752    0.0000 C   0  0  0  0  0  0  0  0  0  0  0  0
   -0.3854   -0.0752    0.0000 C   0  0  0  0  0  0  0  0  0  0  0  0
    0.4802    0.4256    0.0000 C   0  0  0  0  0  0  0  0  0  0  0  0
    1.3466   -0.0738    0.0000 C   0  0  0  0  0  0  0  0  0  0  0  0
    1.3474   -1.0738    0.0000 C   0  0  0  0  0  0  0  0  0  0  0  0
    0.4818   -1.5744    0.0000 C   0  0  0  0  0  0  0  0  0  0  0  0
    2.2986   -1.3820    0.0000 C   0  0  0  0  0  0  0  0  0  0  0  0
    2.8858   -0.5724    0.0000 C   0  0  0  0  0  0  0  0  0  0  0  0
    2.2972    0.2360    0.0000 C   0  0  0  0  0  0  0  0  0  0  0  0
  1  2  1  0
  2  3  1  0
  3  4  2  0
  4  5  1  0
  5  6  2  0
  6  7  1  0
  7  8  2  0
  7  9  1  0
  9 10  1  0
 10 11  1  0
  8  3  1  0
 11  6  1  0
M  END

> <chembl_id>
CHEMBL4549120

> <chembl_pref_name>
None

$$$$

     RDKit          2D

  7  7  0  0  0  0  0  0  0  0999 V2000
    0.5591    0.0732    0.0000 S   0  0  0  0  0  0  0  0  0  0  0  0
    0.3042   -0.7114    0.0000 C   0  0  0  0  0  0  0  0  0  0  0  0
   -0.5208   -0.7114    0.0000 N   0  0  0  0  0  0  0  0  0  0  0  0
   -0.7757    0.0732    0.0000 C   0  0  0  0  0  0  0  0  0  0  0  0
   -0.1083    0.5581    0.0000 C   0  0  0  0  0  0  0  0  0  0  0  0
    0.7891   -1.3789    0.0000 N   0  0  0  0  0  0  0  0  0  0  0  0
   -0.1083    1.3831    0.0000 C   0  0  0  0  0  0  0  0  0  0  0  0
  2  1  1  0
  5  1  1  0
  2  3  2  0
  2  6  1  0
  4  3  1  0
  4  5  2  0
  5  7  1  0
M  END

> <chembl_id>
CHEMBL502447

> <chembl_pref_name>
None

$$$$

     RDKit          2D

  9  8  0  0  0  0  0  0  0  0999 V2000
    1.4343   -1.0715    0.0000 N   0  0  0  0  0  0  0  0  0  0  0  0
    2.6956   -0.6665    0.0000 N   0  0  0  0  0  0  0  0  0  0  0  0
    2.2189   -1.3330    0.0000 C   0  0  0  0  0  0  0  0  0  0  0  0
    1.4343   -0.2489    0.0000 C   0  0  0  0  0  0  0  0  0  0  0  0
    2.2189    0.0000    0.0000 C   0  0  0  0  0  0  0  0  0  0  0  0
    0.7551   -1.5608    0.0000 C   0  0  0  0  0  0  0  0  0  0  0  0
    3.5224   -0.6665    0.0000 C   0  0  0  0  0  0  0  0  0  0  0  0
    0.0000   -1.2234    0.0000 C   0  0  0  0  0  0  0  0  0  0  0  0
    4.2185   -1.1432    0.0000 Cl  0  0  0  0  0  0  0  0  0  0  0  0
  1  3  1  0
  1  4  1  0
  1  6  1  0
  2  3  2  0
  2  5  1  0
  2  7  1  0
  4  5  2  0
  6  8  1  0
M  CHG  2   2   1   9  -1
M  END

> <chembl_id>
CHEMBL3184109

> <chembl_pref_name>
None

$$$$
 
     RDKit          2D

  9  9  0  0  0  0  0  0  0  0999 V2000
   29.8222  -26.9491    0.0000 S   0  0  0  0  0  0  0  0  0  0  0  0
   29.1521  -27.4334    0.0000 C   0  0  0  0  0  0  0  0  0  0  0  0
   29.4076  -28.2178    0.0000 C   0  0  0  0  0  0  0  0  0  0  0  0
   30.2326  -28.2178    0.0000 C   0  0  0  0  0  0  0  0  0  0  0  0
   30.4882  -27.4334    0.0000 C   0  0  0  0  0  0  0  0  0  0  0  0
   28.4375  -27.0195    0.0000 C   0  0  0  0  0  0  0  0  0  0  0  0
   28.4385  -26.1987    0.0000 O   0  0  0  0  0  0  0  0  0  0  0  0
   27.7260  -27.4291    0.0000 C   0  0  0  0  0  0  0  0  0  0  0  0
   27.0156  -27.0178    0.0000 C   0  0  0  0  0  0  0  0  0  0  0  0
  2  3  2  0
  1  2  1  0
  3  4  1  0
  4  5  2  0
  5  1  1  0
  2  6  1  0
  6  7  2  0
  6  8  1  0
  8  9  1  0
M  END

> <chembl_id>
CHEMBL4453282

> <chembl_pref_name>
None

$$$$

     RDKit          2D

 11 12  0  0  0  0  0  0  0  0999 V2000
    5.8042   -4.4167    0.0000 C   0  0  0  0  0  0  0  0  0  0  0  0
    5.2875   -4.7042    0.0000 C   0  0  0  0  0  0  0  0  0  0  0  0
    5.8042   -5.0125    0.0000 C   0  0  0  0  0  0  0  0  0  0  0  0
    6.1125   -3.9000    0.0000 N   0  0  0  0  0  0  0  0  0  0  0  0
    5.8125   -3.3792    0.0000 C   0  0  0  0  0  0  0  0  0  0  0  0
    5.2125   -3.3750    0.0000 C   0  0  0  0  0  0  0  0  0  0  0  0
    4.9125   -3.8917    0.0000 C   0  0  0  0  0  0  0  0  0  0  0  0
    4.9125   -2.8500    0.0000 C   0  0  0  0  0  0  0  0  0  0  0  0
    4.3125   -2.8500    0.0000 C   0  0  0  0  0  0  0  0  0  0  0  0
    4.3125   -3.8917    0.0000 C   0  0  0  0  0  0  0  0  0  0  0  0
    4.0125   -3.3667    0.0000 C   0  0  0  0  0  0  0  0  0  0  0  0
  2  1  1  0
  3  1  1  0
  4  1  1  0
  5  4  1  0
  6  5  1  0
  7  6  1  0
  8  6  2  0
  9  8  1  0
 10  7  2  0
 11  9  2  0
  2  3  1  0
 10 11  1  0
M  END

> <chembl_id>
CHEMBL27700

> <chembl_pref_name>
None

$$$$

     RDKit          2D

  9  9  0  0  0  0  0  0  0  0999 V2000
    0.1658    1.3808    0.0000 C   0  0  0  0  0  0  0  0  0  0  0  0
    0.4724    0.4290    0.0000 C   0  0  0  0  0  0  0  0  0  0  0  0
    1.4226    0.1178    0.0000 N   0  0  0  0  0  0  0  0  0  0  0  0
    1.4202   -0.8822    0.0000 C   0  0  0  0  0  0  0  0  0  0  0  0
    2.2276   -1.4720    0.0000 N   0  0  0  0  0  0  0  0  0  0  0  0
    0.4682   -1.1890    0.0000 S   0  0  0  0  0  0  0  0  0  0  0  0
   -0.1174   -0.3784    0.0000 C   0  0  0  0  0  0  0  0  0  0  0  0
   -1.1174   -0.3760    0.0000 C   0  0  0  0  0  0  0  0  0  0  0  0
   -2.1174   -0.3736    0.0000 N   0  0  0  0  0  0  0  0  0  0  0  0
  1  2  1  0
  2  3  1  0
  3  4  2  0
  4  5  1  0
  4  6  1  0
  6  7  1  0
  7  8  1  0
  8  9  3  0
  7  2  2  0
M  END

> <chembl_id>
CHEMBL4570412

> <chembl_pref_name>
None

$$$$

     RDKit          2D

  9  9  0  0  0  0  0  0  0  0999 V2000
   -3.6702   -0.4618    0.0000 C   0  0  0  0  0  0  0  0  0  0  0  0
   -2.8038    0.0372    0.0000 N   0  0  0  0  0  0  0  0  0  0  0  0
   -1.9384   -0.4638    0.0000 C   0  0  0  0  0  0  0  0  0  0  0  0
   -1.0718    0.0352    0.0000 C   0  0  0  0  0  0  0  0  0  0  0  0
   -0.9660    1.0296    0.0000 N   0  0  0  0  0  0  0  0  0  0  0  0
    0.0122    1.2364    0.0000 O   0  0  0  0  0  0  0  0  0  0  0  0
    0.5112    0.3698    0.0000 C   0  0  0  0  0  0  0  0  0  0  0  0
    1.5056    0.2642    0.0000 C   0  0  0  0  0  0  0  0  0  0  0  0
   -0.1586   -0.3726    0.0000 N   0  0  0  0  0  0  0  0  0  0  0  0
  1  2  1  0
  2  3  1  0
  3  4  1  0
  4  5  2  0
  5  6  1  0
  6  7  1  0
  7  8  1  0
  7  9  2  0
  9  4  1  0
M  END

> <chembl_id>
CHEMBL4546948

> <chembl_pref_name>
None

$$$$
 
     RDKit          2D

  8  8  0  0  0  0  0  0  0  0999 V2000
   15.1561  -10.2923    0.0000 C   0  0  0  0  0  0  0  0  0  0  0  0
   15.1549  -11.1195    0.0000 C   0  0  0  0  0  0  0  0  0  0  0  0
   15.8695  -11.5322    0.0000 N   0  0  0  0  0  0  0  0  0  0  0  0
   16.5856  -11.1190    0.0000 C   0  0  0  0  0  0  0  0  0  0  0  0
   16.5828  -10.2887    0.0000 C   0  0  0  0  0  0  0  0  0  0  0  0
   15.8677   -9.8798    0.0000 C   0  0  0  0  0  0  0  0  0  0  0  0
   17.3006  -11.5302    0.0000 Cl  0  0  0  0  0  0  0  0  0  0  0  0
   17.2955   -9.8737    0.0000 O   0  0  0  0  0  0  0  0  0  0  0  0
  1  2  2  0
  2  3  1  0
  3  4  2  0
  4  5  1  0
  5  6  2  0
  6  1  1  0
  4  7  1  0
  5  8  1  0
M  END

> <chembl_id>
CHEMBL4636200

> <chembl_pref_name>
None

$$$$

     RDKit          2D

  9  9  0  0  0  0  0  0  0  0999 V2000
   17.1986   -3.0342    0.0000 N   0  0  0  0  0  0  0  0  0  0  0  0
   19.3297   -2.6217    0.0000 N   0  0  0  0  0  0  0  0  0  0  0  0
   16.4883   -4.2634    0.0000 C   0  0  0  0  0  0  0  0  0  0  0  0
   17.1986   -4.6718    0.0000 C   0  0  0  0  0  0  0  0  0  0  0  0
   17.9090   -4.2634    0.0000 C   0  0  0  0  0  0  0  0  0  0  0  0
   17.9090   -3.4426    0.0000 C   0  0  0  0  0  0  0  0  0  0  0  0
   16.4883   -3.4426    0.0000 C   0  0  0  0  0  0  0  0  0  0  0  0
   18.6193   -3.0342    0.0000 C   0  0  0  0  0  0  0  0  0  0  0  0
   17.1986   -2.2133    0.0000 C   0  0  0  0  0  0  0  0  0  0  0  0
  5  4  2  0
  1  7  1  0
  9  1  1  0
  3  7  2  0
  6  8  1  0
  6  5  1  0
  8  2  3  0
  4  3  1  0
  1  6  2  0
M  CHG  1   1   1
M  END

> <chembl_id>
CHEMBL3273124

> <chembl_pref_name>
None

$$$$
 
     RDKit          2D

 10 10  0  0  0  0  0  0  0  0999 V2000
   19.9053  -17.5519    0.0000 O   0  0  0  0  0  0  0  0  0  0  0  0
   19.8199  -16.7351    0.0000 C   0  0  0  0  0  0  0  0  0  0  0  0
   20.5706  -16.4027    0.0000 C   0  0  0  0  0  0  0  0  0  0  0  0
   21.1215  -17.0141    0.0000 C   0  0  0  0  0  0  0  0  0  0  0  0
   20.7088  -17.7218    0.0000 C   0  0  0  0  0  0  0  0  0  0  0  0
   19.1081  -16.3265    0.0000 C   0  0  0  0  0  0  0  0  0  0  0  0
   19.1081  -15.5051    0.0000 O   0  0  0  0  0  0  0  0  0  0  0  0
   18.4004  -16.7351    0.0000 O   0  0  0  0  0  0  0  0  0  0  0  0
   17.6885  -16.3265    0.0000 C   0  0  0  0  0  0  0  0  0  0  0  0
   16.9767  -16.7351    0.0000 C   0  0  0  0  0  0  0  0  0  0  0  0
  1  2  1  0
  2  3  2  0
  3  4  1  0
  4  5  2  0
  1  5  1  0
  6  7  2  0
  6  8  1  0
  2  6  1  0
  9 10  1  0
  8  9  1  0
M  END

> <chembl_id>
CHEMBL4634762

> <chembl_pref_name>
None

$$$$

     RDKit          2D

 10 10  0  0  0  0  0  0  0  0999 V2000
    1.2990   -0.7500    0.0000 C   0  0  0  0  0  0  0  0  0  0  0  0
    1.2990    0.7500    0.0000 C   0  0  0  0  0  0  0  0  0  0  0  0
    0.0000    1.5000    0.0000 C   0  0  0  0  0  0  0  0  0  0  0  0
   -1.2990    0.7500    0.0000 N   0  0  0  0  0  0  0  0  0  0  0  0
   -1.2990   -0.7500    0.0000 C   0  0  0  0  0  0  0  0  0  0  0  0
    0.0000   -1.5000    0.0000 C   0  0  0  0  0  0  0  0  0  0  0  0
   -2.5972   -1.5031    0.0000 C   0  0  0  0  0  0  0  0  0  0  0  0
   -3.6375   -0.9049    0.0000 O   0  0  0  0  0  0  0  0  0  0  0  0
   -2.5955   -2.7031    0.0000 O   0  0  0  0  0  0  0  0  0  0  0  0
    2.3383   -1.3500    0.0000 N   0  0  0  0  0  0  0  0  0  0  0  0
  1  2  2  0
  2  3  1  0
  3  4  2  0
  4  5  1  0
  5  6  2  0
  6  1  1  0
  7  8  1  0
  7  9  2  0
  5  7  1  0
  1 10  1  0
M  END

> <chembl_id>
CHEMBL3617326

> <chembl_pref_name>
None

$$$$
 
     RDKit          2D

  9  9  0  0  0  0  0  0  0  0999 V2000
   35.8828   -8.6618    0.0000 C   0  0  0  0  0  0  0  0  0  0  0  0
   35.8816   -9.4887    0.0000 C   0  0  0  0  0  0  0  0  0  0  0  0
   36.5960   -9.9014    0.0000 C   0  0  0  0  0  0  0  0  0  0  0  0
   37.3121   -9.4883    0.0000 C   0  0  0  0  0  0  0  0  0  0  0  0
   37.3092   -8.6582    0.0000 C   0  0  0  0  0  0  0  0  0  0  0  0
   36.5942   -8.2492    0.0000 C   0  0  0  0  0  0  0  0  0  0  0  0
   38.0217   -8.2432    0.0000 O   0  0  0  0  0  0  0  0  0  0  0  0
   38.0268   -9.8993    0.0000 O   0  0  0  0  0  0  0  0  0  0  0  0
   35.1672   -9.9005    0.0000 N   0  0  0  0  0  0  0  0  0  0  0  0
  1  2  2  0
  2  3  1  0
  3  4  2  0
  4  5  1  0
  5  6  2  0
  6  1  1  0
  5  7  1  0
  4  8  1  0
  2  9  1  0
M  END

> <chembl_id>
CHEMBL4753152

> <chembl_pref_name>
None

$$$$

     RDKit          2D

  8  8  0  0  0  0  0  0  0  0999 V2000
    0.5806   -1.3694    0.0000 C   0  0  0  0  0  0  0  0  0  0  0  0
    0.5806   -0.5444    0.0000 C   0  0  0  0  0  0  0  0  0  0  0  0
    1.2951   -0.1319    0.0000 C   0  0  0  0  0  0  0  0  0  0  0  0
    2.0096   -0.5444    0.0000 C   0  0  0  0  0  0  0  0  0  0  0  0
    2.0096   -1.3694    0.0000 C   0  0  0  0  0  0  0  0  0  0  0  0
    1.2951   -1.7819    0.0000 C   0  0  0  0  0  0  0  0  0  0  0  0
   -0.1338   -0.1319    0.0000 O   0  0  0  0  0  0  0  0  0  0  0  0
    1.2951    0.6931    0.0000 S   0  0  0  0  0  0  0  0  0  0  0  0
  1  2  2  0
  1  6  1  0
  2  3  1  0
  2  7  1  0
  3  4  2  0
  3  8  1  0
  4  5  1  0
  5  6  2  0
M  END

> <chembl_id>
CHEMBL1233444

> <chembl_pref_name>
None

$$$$

     RDKit          2D

  9  9  0  0  0  0  0  0  0  0999 V2000
    1.4080    0.9324    0.0000 C   0  0  0  0  0  0  0  0  0  0  0  0
    0.5984    0.3454    0.0000 N   0  0  0  0  0  0  0  0  0  0  0  0
    0.5976   -0.6546    0.0000 N   0  0  0  0  0  0  0  0  0  0  0  0
   -0.3538   -0.9628    0.0000 C   0  0  0  0  0  0  0  0  0  0  0  0
   -0.9408   -0.1532    0.0000 C   0  0  0  0  0  0  0  0  0  0  0  0
   -1.9408   -0.1524    0.0000 C   0  0  0  0  0  0  0  0  0  0  0  0
   -2.9408   -0.1516    0.0000 N   0  0  0  0  0  0  0  0  0  0  0  0
   -0.3522    0.6552    0.0000 C   0  0  0  0  0  0  0  0  0  0  0  0
   -0.6604    1.6066    0.0000 N   0  0  0  0  0  0  0  0  0  0  0  0
  1  2  1  0
  2  3  1  0
  3  4  2  0
  4  5  1  0
  5  6  1  0
  6  7  3  0
  5  8  2  0
  8  9  1  0
  8  2  1  0
M  END

> <chembl_id>
CHEMBL4542449

> <chembl_pref_name>
None

$$$$

     RDKit          2D

  9  9  0  0  0  0  0  0  0  0999 V2000
    1.9110    1.3758    0.0000 C   0  0  0  0  0  0  0  0  0  0  0  0
    1.9096    0.3758    0.0000 C   0  0  0  0  0  0  0  0  0  0  0  0
    2.7750   -0.1252    0.0000 C   0  0  0  0  0  0  0  0  0  0  0  0
    1.0432   -0.1232    0.0000 C   0  0  0  0  0  0  0  0  0  0  0  0
    0.9374   -1.1176    0.0000 C   0  0  0  0  0  0  0  0  0  0  0  0
   -0.0410   -1.3244    0.0000 C   0  0  0  0  0  0  0  0  0  0  0  0
   -0.5400   -0.4578    0.0000 N   0  0  0  0  0  0  0  0  0  0  0  0
   -1.5342   -0.3522    0.0000 C   0  0  0  0  0  0  0  0  0  0  0  0
    0.1300    0.2844    0.0000 N   0  0  0  0  0  0  0  0  0  0  0  0
  1  2  1  0
  2  3  1  0
  2  4  1  0
  4  5  1  0
  5  6  2  0
  6  7  1  0
  7  8  1  0
  7  9  1  0
  9  4  2  0
M  END

> <chembl_id>
CHEMBL4569716

> <chembl_pref_name>
None

$$$$

     RDKit          2D

  8  8  0  0  0  0  0  0  0  0999 V2000
    1.0838    1.2762    0.0000 C   0  0  0  0  0  0  0  0  0  0  0  0
    0.8770    0.2978    0.0000 C   0  0  0  0  0  0  0  0  0  0  0  0
    1.5468   -0.4444    0.0000 N   0  0  0  0  0  0  0  0  0  0  0  0
    1.0478   -1.3110    0.0000 O   0  0  0  0  0  0  0  0  0  0  0  0
    0.0694   -1.1042    0.0000 C   0  0  0  0  0  0  0  0  0  0  0  0
   -0.0362   -0.1100    0.0000 C   0  0  0  0  0  0  0  0  0  0  0  0
   -0.9028    0.3892    0.0000 C   0  0  0  0  0  0  0  0  0  0  0  0
   -1.7680   -0.1118    0.0000 N   0  0  0  0  0  0  0  0  0  0  0  0
  1  2  1  0
  2  3  2  0
  3  4  1  0
  4  5  1  0
  5  6  2  0
  6  7  1  0
  7  8  1  0
  6  2  1  0
M  END

> <chembl_id>
CHEMBL4554490

> <chembl_pref_name>
None

$$$$

     RDKit          2D

  9  9  0  0  0  0  0  0  0  0999 V2000
    2.5056    0.2642    0.0000 C   0  0  0  0  0  0  0  0  0  0  0  0
    1.5112    0.3698    0.0000 C   0  0  0  0  0  0  0  0  0  0  0  0
    1.0122    1.2364    0.0000 C   0  0  0  0  0  0  0  0  0  0  0  0
    0.0340    1.0296    0.0000 S   0  0  0  0  0  0  0  0  0  0  0  0
   -0.0718    0.0352    0.0000 C   0  0  0  0  0  0  0  0  0  0  0  0
   -0.9384   -0.4638    0.0000 C   0  0  0  0  0  0  0  0  0  0  0  0
   -1.8038    0.0372    0.0000 C   0  0  0  0  0  0  0  0  0  0  0  0
   -2.6702   -0.4618    0.0000 N   0  0  0  0  0  0  0  0  0  0  0  0
    0.8414   -0.3726    0.0000 N   0  0  0  0  0  0  0  0  0  0  0  0
  1  2  1  0
  2  3  2  0
  3  4  1  0
  4  5  1  0
  5  6  1  0
  6  7  1  0
  7  8  1  0
  5  9  2  0
  9  2  1  0
M  END

> <chembl_id>
CHEMBL4562389

> <chembl_pref_name>
None

$$$$
 
     RDKit          2D

 10 10  0  0  0  0  0  0  0  0999 V2000
    7.0749   -5.1637    0.0000 C   0  0  0  0  0  0  0  0  0  0  0  0
    7.0751   -5.9823    0.0000 C   0  0  0  0  0  0  0  0  0  0  0  0
    7.8538   -6.2350    0.0000 C   0  0  0  0  0  0  0  0  0  0  0  0
    8.3348   -5.5726    0.0000 C   0  0  0  0  0  0  0  0  0  0  0  0
    7.8534   -4.9105    0.0000 N   0  0  0  0  0  0  0  0  0  0  0  0
    8.1056   -4.1332    0.0000 C   0  0  0  0  0  0  0  0  0  0  0  0
    8.9049   -3.9630    0.0000 C   0  0  0  0  0  0  0  0  0  0  0  0
    9.1572   -3.1858    0.0000 N   0  0  0  0  0  0  0  0  0  0  0  0
    9.9564   -3.0156    0.0000 C   0  0  0  0  0  0  0  0  0  0  0  0
    8.6101   -2.5787    0.0000 C   0  0  0  0  0  0  0  0  0  0  0  0
  1  2  2  0
  2  3  1  0
  3  4  2  0
  4  5  1  0
  5  1  1  0
  5  6  1  0
  6  7  1  0
  7  8  1  0
  8  9  1  0
  8 10  1  0
M  END

> <chembl_id>
CHEMBL4438264

> <chembl_pref_name>
None

$$$$

     RDKit          2D

  9  9  0  0  0  0  0  0  0  0999 V2000
    0.2438    2.1756    0.0000 C   0  0  0  0  0  0  0  0  0  0  0  0
   -0.6232    1.6774    0.0000 C   0  0  0  0  0  0  0  0  0  0  0  0
   -0.6252    0.6774    0.0000 C   0  0  0  0  0  0  0  0  0  0  0  0
    0.2398    0.1756    0.0000 C   0  0  0  0  0  0  0  0  0  0  0  0
    0.2378   -0.8244    0.0000 N   0  0  0  0  0  0  0  0  0  0  0  0
   -0.6292   -1.3226    0.0000 C   0  0  0  0  0  0  0  0  0  0  0  0
   -1.4942   -0.8208    0.0000 C   0  0  0  0  0  0  0  0  0  0  0  0
   -1.4922    0.1790    0.0000 C   0  0  0  0  0  0  0  0  0  0  0  0
   -2.3572    0.6808    0.0000 N   0  0  0  0  0  0  0  0  0  0  0  0
  1  2  1  0
  2  3  1  0
  3  4  2  0
  4  5  1  0
  5  6  1  0
  6  7  2  0
  7  8  1  0
  8  9  2  0
  8  3  1  0
M  END

> <chembl_id>
CHEMBL4586319

> <chembl_pref_name>
None

$$$$

     RDKit          2D

 10 10  0  0  0  0  0  0  0  0999 V2000
    0.0000   -0.8250    0.0000 O   0  0  0  0  0  0  0  0  0  0  0  0
    0.8250   -0.8250    0.0000 C   0  0  0  0  0  0  0  0  0  0  0  0
    0.8250   -1.6500    0.0000 C   0  0  0  0  0  0  0  0  0  0  0  0
    1.5411   -2.0690    0.0000 C   0  0  0  0  0  0  0  0  0  0  0  0
    0.1089   -2.0690    0.0000 C   0  0  0  0  0  0  0  0  0  0  0  0
    1.5411   -2.8940    0.0000 C   0  0  0  0  0  0  0  0  0  0  0  0
    0.1089   -2.8940    0.0000 C   0  0  0  0  0  0  0  0  0  0  0  0
    1.6500   -0.8250    0.0000 C   0  0  0  0  0  0  0  0  0  0  0  0
    0.8250    0.0000    0.0000 C   0  0  0  0  0  0  0  0  0  0  0  0
    0.8250   -3.2999    0.0000 C   0  0  0  0  0  0  0  0  0  0  0  0
  1  2  1  0
  2  3  1  0
  2  8  1  0
  2  9  1  0
  3  4  2  0
  3  5  1  0
  4  6  1  0
  5  7  2  0
  6 10  2  0
  7 10  1  0
M  END

> <chembl_id>
CHEMBL3185495

> <chembl_pref_name>
None

$$$$

     RDKit          2D

  9  9  0  0  0  0  0  0  0  0999 V2000
    7.3570   -8.5448    0.0000 C   0  0  0  0  0  0  0  0  0  0  0  0
    6.6416   -8.9566    0.0000 C   0  0  0  0  0  0  0  0  0  0  0  0
    6.6413   -9.7842    0.0000 C   0  0  0  0  0  0  0  0  0  0  0  0
    7.3557  -10.1969    0.0000 C   0  0  0  0  0  0  0  0  0  0  0  0
    8.0678   -9.7842    0.0000 C   0  0  0  0  0  0  0  0  0  0  0  0
    8.0687   -8.9579    0.0000 C   0  0  0  0  0  0  0  0  0  0  0  0
    8.7827   -8.5471    0.0000 C   0  0  0  0  0  0  0  0  0  0  0  0
    9.4953   -8.9602    0.0000 O   0  0  0  0  0  0  0  0  0  0  0  0
    5.9279  -10.1959    0.0000 N   0  0  0  0  0  0  0  0  0  0  0  0
  1  2  2  0
  2  3  1  0
  3  4  2  0
  4  5  1  0
  5  6  2  0
  6  1  1  0
  6  7  1  0
  7  8  1  0
  3  9  1  0
M  END

> <chembl_id>
CHEMBL4087737

> <chembl_pref_name>
None

$$$$

     RDKit          2D

 10 10  0  0  0  0  0  0  0  0999 V2000
    1.5164    0.0484    0.0000 C   0  0  0  0  0  0  0  0  0  0  0  0
    0.5224    0.1574    0.0000 C   0  0  0  0  0  0  0  0  0  0  0  0
   -0.1500   -0.5826    0.0000 C   0  0  0  0  0  0  0  0  0  0  0  0
   -1.0618   -0.1718    0.0000 C   0  0  0  0  0  0  0  0  0  0  0  0
   -1.9300   -0.6680    0.0000 C   0  0  0  0  0  0  0  0  0  0  0  0
   -2.7938   -0.1642    0.0000 N   0  0  0  0  0  0  0  0  0  0  0  0
   -0.9528    0.8222    0.0000 C   0  0  0  0  0  0  0  0  0  0  0  0
   -1.6928    1.4946    0.0000 C   0  0  0  0  0  0  0  0  0  0  0  0
    0.0262    1.0256    0.0000 N   0  0  0  0  0  0  0  0  0  0  0  0
    0.4370    1.9374    0.0000 C   0  0  0  0  0  0  0  0  0  0  0  0
  1  2  1  0
  2  3  2  0
  3  4  1  0
  4  5  1  0
  5  6  1  0
  4  7  2  0
  7  8  1  0
  7  9  1  0
  9 10  1  0
  9  2  1  0
M  END

> <chembl_id>
CHEMBL4536153

> <chembl_pref_name>
None

$$$$

     RDKit          2D

  8  8  0  0  0  0  0  0  0  0999 V2000
   -3.6396   -0.5864    0.0000 C   0  0  0  0  0  0  0  0  0  0  0  0
   -2.7730   -0.0874    0.0000 N   0  0  0  0  0  0  0  0  0  0  0  0
   -1.9076   -0.5882    0.0000 C   0  0  0  0  0  0  0  0  0  0  0  0
   -1.0412   -0.0892    0.0000 C   0  0  0  0  0  0  0  0  0  0  0  0
   -0.9354    0.9050    0.0000 N   0  0  0  0  0  0  0  0  0  0  0  0
    0.0430    1.1120    0.0000 C   0  0  0  0  0  0  0  0  0  0  0  0
    0.5418    0.2454    0.0000 N   0  0  0  0  0  0  0  0  0  0  0  0
   -0.1280   -0.4970    0.0000 O   0  0  0  0  0  0  0  0  0  0  0  0
  1  2  1  0
  2  3  1  0
  3  4  1  0
  4  5  2  0
  5  6  1  0
  6  7  2  0
  7  8  1  0
  8  4  1  0
M  END

> <chembl_id>
CHEMBL4552150

> <chembl_pref_name>
None

$$$$

     RDKit          2D

 10 10  0  0  0  0  0  0  0  0999 V2000
   19.2887   -5.0721    0.0000 C   0  0  0  0  0  0  0  0  0  0  0  0
   17.1623   -4.6288    0.0000 C   0  0  0  0  0  0  0  0  0  0  0  0
   17.8808   -5.0405    0.0000 C   0  0  0  0  0  0  0  0  0  0  0  0
   18.5952   -4.6288    0.0000 C   0  0  0  0  0  0  0  0  0  0  0  0
   17.1623   -3.8015    0.0000 O   0  0  0  0  0  0  0  0  0  0  0  0
   16.4479   -5.0405    0.0000 O   0  0  0  0  0  0  0  0  0  0  0  0
   19.2985   -5.8977    0.0000 N   0  0  0  0  0  0  0  0  0  0  0  0
   20.0844   -6.1440    0.0000 C   0  0  0  0  0  0  0  0  0  0  0  0
   20.5644   -5.4766    0.0000 C   0  0  0  0  0  0  0  0  0  0  0  0
   20.0726   -4.8135    0.0000 C   0  0  0  0  0  0  0  0  0  0  0  0
  2  6  2  0
  4  1  1  0
  9 10  1  0
  7  8  1  0
  2  3  1  0
  3  4  2  0
  2  5  1  0
  1  7  1  0
  8  9  2  0
 10  1  2  0
M  END

> <chembl_id>
CHEMBL1771760

> <chembl_pref_name>
None

$$$$

     RDKit          2D

  7  7  0  0  0  0  0  0  0  0999 V2000
    1.4553   -2.0031    0.0000 C   0  0  0  0  0  0  0  0  0  0  0  0
    0.7500   -1.0323    0.0000 N   0  0  0  0  0  0  0  0  0  0  0  0
    1.2135    0.3943    0.0000 C   0  0  0  0  0  0  0  0  0  0  0  0
    0.0000    1.2760    0.0000 C   0  0  0  0  0  0  0  0  0  0  0  0
   -1.2135    0.3943    0.0000 N   0  0  0  0  0  0  0  0  0  0  0  0
   -0.7500   -1.0323    0.0000 C   0  0  0  0  0  0  0  0  0  0  0  0
   -1.4553   -2.0031    0.0000 S   0  0  0  0  0  0  0  0  0  0  0  0
  1  2  1  0
  2  3  1  0
  3  4  2  0
  4  5  1  0
  5  6  1  0
  6  2  1  0
  6  7  2  0
M  END

> <chembl_id>
CHEMBL1515

> <chembl_pref_name>
METHIMAZOLE

$$$$

     RDKit          2D

 10 10  0  0  0  0  0  0  0  0999 V2000
    5.4072  -14.4499    0.0000 N   0  0  0  0  0  0  0  0  0  0  0  0
    6.1173  -14.0399    0.0000 C   0  0  0  0  0  0  0  0  0  0  0  0
    6.8274  -14.4499    0.0000 N   0  0  0  0  0  0  0  0  0  0  0  0
    6.1173  -13.2199    0.0000 N   0  0  0  0  0  0  0  0  0  0  0  0
    4.6971  -14.0399    0.0000 C   0  0  0  0  0  0  0  0  0  0  0  0
    3.9870  -14.4499    0.0000 C   0  0  0  0  0  0  0  0  0  0  0  0
    3.2770  -14.0399    0.0000 C   0  0  0  0  0  0  0  0  0  0  0  0
    3.2770  -13.2199    0.0000 C   0  0  0  0  0  0  0  0  0  0  0  0
    3.9870  -12.8100    0.0000 C   0  0  0  0  0  0  0  0  0  0  0  0
    4.6971  -13.2199    0.0000 C   0  0  0  0  0  0  0  0  0  0  0  0
  1  2  1  0
  2  3  1  0
  2  4  2  0
  5  6  1  0
  6  7  2  0
  7  8  1  0
  8  9  2  0
  9 10  1  0
  5 10  2  0
  1  5  1  0
M  END

> <chembl_id>
CHEMBL14047

> <chembl_pref_name>
PHENYLGUANIDINE

$$$$

     RDKit          2D

 11 12  0  0  0  0  0  0  0  0999 V2000
    2.5661   -1.1815    0.0000 C   0  0  0  0  0  0  0  0  0  0  0  0
    2.5661   -2.0065    0.0000 C   0  0  0  0  0  0  0  0  0  0  0  0
    3.2833   -0.7628    0.0000 C   0  0  0  0  0  0  0  0  0  0  0  0
    3.2750   -2.4169    0.0000 C   0  0  0  0  0  0  0  0  0  0  0  0
    3.9964   -1.1815    0.0000 C   0  0  0  0  0  0  0  0  0  0  0  0
    4.7135   -0.7753    0.0000 N   0  0  0  0  0  0  0  0  0  0  0  0
    3.9964   -2.0065    0.0000 C   0  0  0  0  0  0  0  0  0  0  0  0
    1.8572   -0.7711    0.0000 C   0  0  0  0  0  0  0  0  0  0  0  0
    1.8572   -2.4169    0.0000 C   0  0  0  0  0  0  0  0  0  0  0  0
    1.1484   -1.1815    0.0000 C   0  0  0  0  0  0  0  0  0  0  0  0
    1.1484   -2.0065    0.0000 C   0  0  0  0  0  0  0  0  0  0  0  0
  2  1  1  0
  3  1  1  0
  4  2  1  0
  5  3  1  0
  5  6  1  6
  7  5  1  0
  8  1  2  0
  9  2  2  0
 10  8  1  0
 11 10  2  0
  9 11  1  0
  4  7  1  0
M  END

> <chembl_id>
CHEMBL2114376

> <chembl_pref_name>
None

$$$$

     RDKit          2D

  9  9  0  0  0  0  0  0  0  0999 V2000
    1.3554    2.5902    0.0000 N   0  0  0  0  0  0  0  0  0  0  0  0
    0.4884    2.0920    0.0000 C   0  0  0  0  0  0  0  0  0  0  0  0
    0.4864    1.0920    0.0000 C   0  0  0  0  0  0  0  0  0  0  0  0
   -0.3806    0.5938    0.0000 C   0  0  0  0  0  0  0  0  0  0  0  0
   -0.3826   -0.4062    0.0000 C   0  0  0  0  0  0  0  0  0  0  0  0
   -1.2498   -0.9044    0.0000 Cl  0  0  0  0  0  0  0  0  0  0  0  0
    0.4824   -0.9080    0.0000 C   0  0  0  0  0  0  0  0  0  0  0  0
    1.3494   -0.4096    0.0000 C   0  0  0  0  0  0  0  0  0  0  0  0
    1.3514    0.5904    0.0000 N   0  0  0  0  0  0  0  0  0  0  0  0
  1  2  1  0
  2  3  1  0
  3  4  2  0
  4  5  1  0
  5  6  1  0
  5  7  2  0
  7  8  1  0
  8  9  2  0
  9  3  1  0
M  END

> <chembl_id>
CHEMBL4588770

> <chembl_pref_name>
None

$$$$

     RDKit          2D

 10 10  0  0  0  0  0  0  0  0999 V2000
   -2.8152   -0.7812    0.0000 C   0  0  0  0  0  0  0  0  0  0  0  0
   -1.9496   -1.2820    0.0000 C   0  0  0  0  0  0  0  0  0  0  0  0
   -1.0832   -0.7826    0.0000 N   0  0  0  0  0  0  0  0  0  0  0  0
   -0.2176   -1.2834    0.0000 C   0  0  0  0  0  0  0  0  0  0  0  0
    0.6488   -0.7840    0.0000 C   0  0  0  0  0  0  0  0  0  0  0  0
    1.5144   -1.2848    0.0000 N   0  0  0  0  0  0  0  0  0  0  0  0
    0.6496    0.2160    0.0000 C   0  0  0  0  0  0  0  0  0  0  0  0
   -0.2160    0.7166    0.0000 C   0  0  0  0  0  0  0  0  0  0  0  0
   -1.0824    0.2174    0.0000 C   0  0  0  0  0  0  0  0  0  0  0  0
   -1.9480    0.7180    0.0000 O   0  0  0  0  0  0  0  0  0  0  0  0
  1  2  1  0
  2  3  1  0
  3  4  1  0
  4  5  2  0
  5  6  1  0
  5  7  1  0
  7  8  2  0
  8  9  1  0
  9 10  2  0
  9  3  1  0
M  END

> <chembl_id>
CHEMBL4577507

> <chembl_pref_name>
None

$$$$

     RDKit          2D

 10 11  0  0  0  0  0  0  0  0999 V2000
   27.9556   -7.3530    0.0000 C   0  0  0  0  0  0  0  0  0  0  0  0
   27.9544   -8.1804    0.0000 C   0  0  0  0  0  0  0  0  0  0  0  0
   28.6693   -8.5933    0.0000 C   0  0  0  0  0  0  0  0  0  0  0  0
   28.6675   -6.9403    0.0000 C   0  0  0  0  0  0  0  0  0  0  0  0
   29.3828   -7.3494    0.0000 C   0  0  0  0  0  0  0  0  0  0  0  0
   29.3836   -8.1762    0.0000 C   0  0  0  0  0  0  0  0  0  0  0  0
   30.0989   -8.5872    0.0000 C   0  0  0  0  0  0  0  0  0  0  0  0
   30.8139   -8.1725    0.0000 N   0  0  0  0  0  0  0  0  0  0  0  0
   30.8092   -7.3425    0.0000 C   0  0  0  0  0  0  0  0  0  0  0  0
   30.0933   -6.9353    0.0000 C   0  0  0  0  0  0  0  0  0  0  0  0
  1  2  2  0
  2  3  1  0
  3  6  2  0
  5  4  2  0
  4  1  1  0
  5  6  1  0
  6  7  1  0
  7  8  1  0
  8  9  1  0
  9 10  1  0
 10  5  1  0
M  END

> <chembl_id>
CHEMBL14346

> <chembl_pref_name>
1,2,3,4-TETRAHYDROISOQUINOLINE

$$$$

     RDKit          2D

 11 13  0  0  0  0  0  0  0  0999 V2000
   15.0009    1.2099    0.0000 C   0  0  0  0  0  0  0  0  0  0  0  0
   15.0523    2.0025    0.0000 C   0  0  0  0  0  0  0  0  0  0  0  0
   15.4540    2.7160    0.0000 C   0  0  0  0  0  0  0  0  0  0  0  0
   15.5603    1.9314    0.0000 C   0  0  0  0  0  0  0  0  0  0  0  0
   14.9340    3.4168    0.0000 N   0  0  0  0  0  0  0  0  0  0  0  0
   16.4200    2.6350    0.0000 C   0  0  0  0  0  0  0  0  0  0  0  0
   16.4218    1.9079    0.0000 C   0  0  0  0  0  0  0  0  0  0  0  0
   17.1291    1.3990    0.0000 C   0  0  0  0  0  0  0  0  0  0  0  0
   17.8458    1.8109    0.0000 N   0  0  0  0  0  0  0  0  0  0  0  0
   17.8427    2.6389    0.0000 C   0  0  0  0  0  0  0  0  0  0  0  0
   17.1272    3.0463    0.0000 C   0  0  0  0  0  0  0  0  0  0  0  0
  4  5  1  0
  3  5  1  0
  3  6  1  0
  6  7  2  0
  7  4  1  0
  7  8  1  0
  1  2  1  0
  8  9  2  0
  2  3  1  0
  9 10  1  0
  1  4  1  0
 10 11  2  0
 11  6  1  0
M  END

> <chembl_id>
CHEMBL235330

> <chembl_pref_name>
None

$$$$

     RDKit          2D

 10 10  0  0  0  0  0  0  0  0999 V2000
    1.4700    2.8012    0.0000 C   0  0  0  0  0  0  0  0  0  0  0  0
    1.4692    1.8012    0.0000 O   0  0  0  0  0  0  0  0  0  0  0  0
    0.6028    1.3018    0.0000 C   0  0  0  0  0  0  0  0  0  0  0  0
    0.6020    0.3018    0.0000 C   0  0  0  0  0  0  0  0  0  0  0  0
   -0.2644   -0.1974    0.0000 C   0  0  0  0  0  0  0  0  0  0  0  0
   -1.1300    0.3032    0.0000 C   0  0  0  0  0  0  0  0  0  0  0  0
   -1.9964   -0.1960    0.0000 C   0  0  0  0  0  0  0  0  0  0  0  0
   -2.8620    0.3046    0.0000 N   0  0  0  0  0  0  0  0  0  0  0  0
   -1.1292    1.3032    0.0000 N   0  0  0  0  0  0  0  0  0  0  0  0
   -0.2628    1.8026    0.0000 C   0  0  0  0  0  0  0  0  0  0  0  0
  1  2  1  0
  2  3  1  0
  3  4  2  0
  4  5  1  0
  5  6  2  0
  6  7  1  0
  7  8  1  0
  6  9  1  0
  9 10  2  0
 10  3  1  0
M  END

> <chembl_id>
CHEMBL4554814

> <chembl_pref_name>
None

$$$$

     RDKit          2D

  9  9  0  0  0  0  0  0  0  0999 V2000
    2.0746  -17.3013    0.0000 C   0  0  0  0  0  0  0  0  0  0  0  0
    2.0734  -18.1208    0.0000 C   0  0  0  0  0  0  0  0  0  0  0  0
    2.7815  -18.5298    0.0000 N   0  0  0  0  0  0  0  0  0  0  0  0
    3.4911  -18.1204    0.0000 C   0  0  0  0  0  0  0  0  0  0  0  0
    3.4883  -17.2977    0.0000 C   0  0  0  0  0  0  0  0  0  0  0  0
    2.7797  -16.8924    0.0000 C   0  0  0  0  0  0  0  0  0  0  0  0
    1.3654  -18.5289    0.0000 F   0  0  0  0  0  0  0  0  0  0  0  0
    4.1995  -18.5279    0.0000 C   0  0  0  0  0  0  0  0  0  0  0  0
    4.2008  -19.3450    0.0000 N   0  0  0  0  0  0  0  0  0  0  0  0
  1  2  2  0
  2  3  1  0
  3  4  2  0
  4  5  1  0
  5  6  2  0
  6  1  1  0
  2  7  1  0
  4  8  1  0
  8  9  1  0
M  END

> <chembl_id>
CHEMBL4126180

> <chembl_pref_name>
None

$$$$
 
     RDKit          2D

  9  9  0  0  0  0  0  0  0  0999 V2000
    2.7060  -24.9160    0.0000 C   0  0  0  0  0  0  0  0  0  0  0  0
    2.7049  -25.7356    0.0000 C   0  0  0  0  0  0  0  0  0  0  0  0
    3.4129  -26.1445    0.0000 N   0  0  0  0  0  0  0  0  0  0  0  0
    4.1226  -25.7351    0.0000 C   0  0  0  0  0  0  0  0  0  0  0  0
    4.1198  -24.9124    0.0000 C   0  0  0  0  0  0  0  0  0  0  0  0
    3.4112  -24.5072    0.0000 C   0  0  0  0  0  0  0  0  0  0  0  0
    3.4072  -23.6843    0.0000 N   0  0  0  0  0  0  0  0  0  0  0  0
    2.6983  -23.2778    0.0000 O   0  0  0  0  0  0  0  0  0  0  0  0
    4.1137  -23.2736    0.0000 O   0  0  0  0  0  0  0  0  0  0  0  0
  1  2  2  0
  2  3  1  0
  3  4  2  0
  4  5  1  0
  5  6  2  0
  6  1  1  0
  7  8  2  0
  7  9  1  0
  6  7  1  0
M  CHG  2   7   1   9  -1
M  END

> <chembl_id>
CHEMBL4577515

> <chembl_pref_name>
None

$$$$

     RDKit          2D

 11 12  0  0  0  0  0  0  0  0999 V2000
    9.5990  -23.0856    0.0000 C   0  0  0  0  0  0  0  0  0  0  0  0
    9.6225  -21.7466    0.0000 C   0  0  0  0  0  0  0  0  0  0  0  0
    9.1274  -22.4078    0.0000 N   0  0  0  0  0  0  0  0  0  0  0  0
   10.4065  -22.0174    0.0000 C   0  0  0  0  0  0  0  0  0  0  0  0
   10.3873  -22.8423    0.0000 C   0  0  0  0  0  0  0  0  0  0  0  0
   11.0910  -23.2696    0.0000 C   0  0  0  0  0  0  0  0  0  0  0  0
   11.8144  -22.8731    0.0000 C   0  0  0  0  0  0  0  0  0  0  0  0
   11.8297  -22.0450    0.0000 C   0  0  0  0  0  0  0  0  0  0  0  0
   11.1254  -21.6214    0.0000 C   0  0  0  0  0  0  0  0  0  0  0  0
    8.3007  -22.3934    0.0000 C   0  0  0  0  0  0  0  0  0  0  0  0
    9.3295  -23.8674    0.0000 O   0  0  0  0  0  0  0  0  0  0  0  0
  4  2  1  0
  5  6  1  0
  2  3  1  0
  6  7  2  0
  3  1  1  0
  7  8  1  0
  1  5  1  0
  8  9  2  0
  9  4  1  0
  3 10  1  0
  4  5  2  0
  1 11  2  0
M  END

> <chembl_id>
CHEMBL502075

> <chembl_pref_name>
None

$$$$

     RDKit          2D

  9  9  0  0  0  0  0  0  0  0999 V2000
    2.3383   -1.3500    0.0000 N   0  0  0  0  0  0  0  0  0  0  0  0
    1.2990   -0.7500    0.0000 C   0  0  0  0  0  0  0  0  0  0  0  0
    1.2990    0.7500    0.0000 N   0  0  0  0  0  0  0  0  0  0  0  0
    0.0000    1.5000    0.0000 C   0  0  0  0  0  0  0  0  0  0  0  0
   -1.2990    0.7500    0.0000 C   0  0  0  0  0  0  0  0  0  0  0  0
   -1.2990   -0.7500    0.0000 C   0  0  0  0  0  0  0  0  0  0  0  0
    0.0000   -1.5000    0.0000 C   0  0  0  0  0  0  0  0  0  0  0  0
    0.0000   -3.0008    0.0000 C   0  0  0  0  0  0  0  0  0  0  0  0
    0.0000   -4.2008    0.0000 N   0  0  0  0  0  0  0  0  0  0  0  0
  1  2  1  0
  2  3  2  3
  3  4  1  0
  4  5  2  3
  5  6  1  0
  6  7  2  3
  7  2  1  0
  7  8  1  0
  8  9  3  0
M  END

> <chembl_id>
CHEMBL4585655

> <chembl_pref_name>
None

$$$$

     RDKit          2D

  9  9  0  0  0  0  0  0  0  0999 V2000
   26.5819   -1.8541    0.0000 C   0  0  0  0  0  0  0  0  0  0  0  0
   26.5807   -2.6815    0.0000 C   0  0  0  0  0  0  0  0  0  0  0  0
   27.2955   -3.0944    0.0000 N   0  0  0  0  0  0  0  0  0  0  0  0
   28.0120   -2.6810    0.0000 C   0  0  0  0  0  0  0  0  0  0  0  0
   28.0091   -1.8505    0.0000 C   0  0  0  0  0  0  0  0  0  0  0  0
   27.2937   -1.4413    0.0000 C   0  0  0  0  0  0  0  0  0  0  0  0
   28.7220   -1.4353    0.0000 C   0  0  0  0  0  0  0  0  0  0  0  0
   29.4380   -1.8451    0.0000 C   0  0  0  0  0  0  0  0  0  0  0  0
   30.1509   -1.4299    0.0000 C   0  0  0  0  0  0  0  0  0  0  0  0
  1  2  2  0
  2  3  1  0
  3  4  2  0
  4  5  1  0
  5  6  2  0
  6  1  1  0
  5  7  1  0
  7  8  2  3
  8  9  1  0
M  END

> <chembl_id>
CHEMBL2289663

> <chembl_pref_name>
None

$$$$

     RDKit          2D

  9  9  0  0  0  0  0  0  0  0999 V2000
   -4.3084   -8.6875    0.0000 N   0  0  0  0  0  0  0  0  0  0  0  0
   -3.4834   -8.6875    0.0000 C   0  0  0  0  0  0  0  0  0  0  0  0
   -3.2266   -7.9034    0.0000 C   0  0  0  0  0  0  0  0  0  0  0  0
   -3.8959   -7.4167    0.0000 C   0  0  0  0  0  0  0  0  0  0  0  0
   -4.5609   -7.9034    0.0000 C   0  0  0  0  0  0  0  0  0  0  0  0
   -2.4382   -7.6476    0.0000 C   0  0  0  0  0  0  0  0  0  0  0  0
   -1.8259   -8.2005    0.0000 O   0  0  0  0  0  0  0  0  0  0  0  0
   -2.2655   -6.8409    0.0000 O   0  0  0  0  0  0  0  0  0  0  0  0
   -5.3456   -7.6488    0.0000 C   0  0  0  0  0  0  0  0  0  0  0  0
  4  5  2  0
  5  1  1  0
  1  2  1  0
  2  3  2  0
  6  7  1  0
  6  8  2  0
  3  6  1  0
  3  4  1  0
  5  9  1  0
M  END

> <chembl_id>
CHEMBL247338

> <chembl_pref_name>
None

$$$$

     RDKit          2D

  9  9  0  0  0  0  0  0  0  0999 V2000
    2.5406   -2.2960    0.0000 N   0  0  0  0  0  0  0  0  0  0  0  0
    1.1116    0.1790    0.0000 N   0  0  0  0  0  0  0  0  0  0  0  0
    1.8261   -1.0585    0.0000 C   0  0  0  0  0  0  0  0  0  0  0  0
    1.8261   -1.8835    0.0000 C   0  0  0  0  0  0  0  0  0  0  0  0
    1.1116   -0.6460    0.0000 C   0  0  0  0  0  0  0  0  0  0  0  0
    1.1116   -2.2960    0.0000 C   0  0  0  0  0  0  0  0  0  0  0  0
    0.3971   -1.0585    0.0000 C   0  0  0  0  0  0  0  0  0  0  0  0
    0.3971   -1.8835    0.0000 C   0  0  0  0  0  0  0  0  0  0  0  0
    2.5406   -0.6460    0.0000 C   0  0  0  0  0  0  0  0  0  0  0  0
  1  4  1  0
  2  5  1  0
  3  4  2  0
  3  5  1  0
  3  9  1  0
  4  6  1  0
  5  7  2  0
  6  8  2  0
  7  8  1  0
M  END

> <chembl_id>
CHEMBL1489438

> <chembl_pref_name>
None

$$$$

     RDKit          2D

 10 10  0  0  0  0  0  0  0  0999 V2000
   16.5158  -21.9848    0.0000 O   0  0  0  0  0  0  0  0  0  0  0  0
   16.9283  -21.2703    0.0000 C   0  0  0  0  0  0  0  0  0  0  0  0
   16.5158  -20.5558    0.0000 C   0  0  0  0  0  0  0  0  0  0  0  0
   16.9283  -19.8414    0.0000 C   0  0  0  0  0  0  0  0  0  0  0  0
   16.5158  -19.1269    0.0000 O   0  0  0  0  0  0  0  0  0  0  0  0
   17.7533  -19.8414    0.0000 C   0  0  0  0  0  0  0  0  0  0  0  0
   18.1658  -20.5558    0.0000 C   0  0  0  0  0  0  0  0  0  0  0  0
   17.7533  -21.2703    0.0000 C   0  0  0  0  0  0  0  0  0  0  0  0
   18.9908  -20.5558    0.0000 C   0  0  0  0  0  0  0  0  0  0  0  0
   15.6908  -20.5558    0.0000 C   0  0  0  0  0  0  0  0  0  0  0  0
  1  2  1  0
  2  3  1  0
  3  4  2  0
  4  5  1  0
  4  6  1  0
  6  7  2  0
  7  8  1  0
  2  8  2  0
  7  9  1  0
  3 10  1  0
M  END

> <chembl_id>
CHEMBL2332779

> <chembl_pref_name>
None

$$$$

     RDKit          2D

 10 10  0  0  0  0  0  0  0  0999 V2000
    0.2210   -1.9389    0.0000 C   0  0  0  0  0  0  0  0  0  0  0  0
    0.9355   -0.7014    0.0000 N   0  0  0  0  0  0  0  0  0  0  0  0
    0.2210   -1.1139    0.0000 C   0  0  0  0  0  0  0  0  0  0  0  0
   -0.4935   -0.7014    0.0000 N   0  0  0  0  0  0  0  0  0  0  0  0
   -0.4935    0.1236    0.0000 C   0  0  0  0  0  0  0  0  0  0  0  0
   -1.2080    0.5361    0.0000 N   0  0  0  0  0  0  0  0  0  0  0  0
    0.2210    0.5361    0.0000 C   0  0  0  0  0  0  0  0  0  0  0  0
    0.9355    0.1236    0.0000 C   0  0  0  0  0  0  0  0  0  0  0  0
    0.2210    1.3611    0.0000 C   0  0  0  0  0  0  0  0  0  0  0  0
   -0.4935    1.7736    0.0000 O   0  0  0  0  0  0  0  0  0  0  0  0
  3  1  1  0
  3  2  2  0
  8  2  1  0
  3  4  1  0
  5  4  2  0
  5  6  1  0
  5  7  1  0
  7  8  2  0
  7  9  1  0
  9 10  1  0
M  END

> <chembl_id>
CHEMBL1233354

> <chembl_pref_name>
None

$$$$

     RDKit          2D

 10 10  0  0  0  0  0  0  0  0999 V2000
   -3.0576   -1.2684    0.0000 C   0  0  0  0  0  0  0  0  0  0  0  0
   -2.4688   -0.4600    0.0000 C   0  0  0  0  0  0  0  0  0  0  0  0
   -1.4744   -0.5656    0.0000 C   0  0  0  0  0  0  0  0  0  0  0  0
   -0.9754   -1.4322    0.0000 C   0  0  0  0  0  0  0  0  0  0  0  0
    0.0030   -1.2254    0.0000 C   0  0  0  0  0  0  0  0  0  0  0  0
    0.1086   -0.2310    0.0000 C   0  0  0  0  0  0  0  0  0  0  0  0
    0.9752    0.2680    0.0000 C   0  0  0  0  0  0  0  0  0  0  0  0
    1.8406   -0.2330    0.0000 C   0  0  0  0  0  0  0  0  0  0  0  0
    0.9764    1.2680    0.0000 O   0  0  0  0  0  0  0  0  0  0  0  0
   -0.8044    0.1768    0.0000 O   0  0  0  0  0  0  0  0  0  0  0  0
  1  2  1  0
  2  3  1  0
  3  4  2  0
  4  5  1  0
  5  6  2  0
  6  7  1  0
  7  8  1  0
  7  9  2  0
  6 10  1  0
 10  3  1  0
M  END

> <chembl_id>
CHEMBL4544435

> <chembl_pref_name>
None

$$$$
 
     RDKit          2D

 11 12  0  0  0  0  0  0  0  0999 V2000
    1.8889   -2.8519    0.0000 C   0  0  0  0  0  0  0  0  0  0  0  0
    1.8877   -3.6714    0.0000 C   0  0  0  0  0  0  0  0  0  0  0  0
    2.5958   -4.0804    0.0000 C   0  0  0  0  0  0  0  0  0  0  0  0
    2.5940   -2.4430    0.0000 C   0  0  0  0  0  0  0  0  0  0  0  0
    3.3026   -2.8483    0.0000 C   0  0  0  0  0  0  0  0  0  0  0  0
    3.3014   -3.6735    0.0000 C   0  0  0  0  0  0  0  0  0  0  0  0
    4.0115   -4.0848    0.0000 N   0  0  0  0  0  0  0  0  0  0  0  0
    4.7273   -3.6755    0.0000 C   0  0  0  0  0  0  0  0  0  0  0  0
    4.7285   -2.8503    0.0000 C   0  0  0  0  0  0  0  0  0  0  0  0
    4.0139   -2.4344    0.0000 N   0  0  0  0  0  0  0  0  0  0  0  0
    5.4372   -2.4435    0.0000 O   0  0  0  0  0  0  0  0  0  0  0  0
  1  2  2  0
  2  3  1  0
  3  6  2  0
  5  4  2  0
  4  1  1  0
  5  6  1  0
  5 10  1  0
  6  7  1  0
  7  8  1  0
  8  9  1  0
  9 10  1  0
  9 11  2  0
M  END

> <chembl_id>
CHEMBL4583027

> <chembl_pref_name>
None

$$$$

     RDKit          2D

  9  9  0  0  0  0  0  0  0  0999 V2000
   -1.3112   -1.3830    0.0000 C   0  0  0  0  0  0  0  0  0  0  0  0
   -0.8102   -0.5176    0.0000 C   0  0  0  0  0  0  0  0  0  0  0  0
   -1.6756   -0.0168    0.0000 C   0  0  0  0  0  0  0  0  0  0  0  0
   -0.3112   -1.3842    0.0000 N   0  0  0  0  0  0  0  0  0  0  0  0
    0.0564   -0.0186    0.0000 C   0  0  0  0  0  0  0  0  0  0  0  0
    0.9694   -0.4264    0.0000 N   0  0  0  0  0  0  0  0  0  0  0  0
    1.6394    0.3160    0.0000 N   0  0  0  0  0  0  0  0  0  0  0  0
    1.1404    1.1824    0.0000 C   0  0  0  0  0  0  0  0  0  0  0  0
    0.1620    0.9756    0.0000 N   0  0  0  0  0  0  0  0  0  0  0  0
  1  2  1  0
  2  3  1  0
  2  4  1  0
  2  5  1  0
  5  6  2  0
  6  7  1  0
  7  8  2  0
  8  9  1  0
  9  5  1  0
M  END

> <chembl_id>
CHEMBL4555096

> <chembl_pref_name>
None

$$$$

     RDKit          2D

 11 12  0  0  0  0  0  0  0  0999 V2000
   -1.6735   -1.3487    0.0000 C   0  0  0  0  0  0  0  0  0  0  0  0
   -0.8665   -1.1772    0.0000 N   0  0  0  0  0  0  0  0  0  0  0  0
   -0.6116   -0.3926    0.0000 C   0  0  0  0  0  0  0  0  0  0  0  0
    0.1731   -0.1376    0.0000 C   0  0  0  0  0  0  0  0  0  0  0  0
    0.8875   -0.5501    0.0000 C   0  0  0  0  0  0  0  0  0  0  0  0
    1.6020   -0.1376    0.0000 C   0  0  0  0  0  0  0  0  0  0  0  0
    1.6020    0.6874    0.0000 C   0  0  0  0  0  0  0  0  0  0  0  0
    0.8875    1.0999    0.0000 C   0  0  0  0  0  0  0  0  0  0  0  0
    0.1731    0.6874    0.0000 C   0  0  0  0  0  0  0  0  0  0  0  0
   -0.6116    0.9423    0.0000 C   0  0  0  0  0  0  0  0  0  0  0  0
   -1.0965    0.2749    0.0000 C   0  0  0  0  0  0  0  0  0  0  0  0
  1  2  1  0
  3  2  1  6
  4  3  1  0
 11  3  1  0
  5  4  2  0
  9  4  1  0
  6  5  1  0
  7  6  2  0
  8  7  1  0
  9  8  2  0
 10  9  1  0
 11 10  1  0
M  END

> <chembl_id>
CHEMBL1235698

> <chembl_pref_name>
None

$$$$

     RDKit          2D

 10 10  0  0  0  0  0  0  0  0999 V2000
   -4.0897  -17.6586    0.0000 C   0  0  0  0  0  0  0  0  0  0  0  0
   -4.0910  -18.4862    0.0000 C   0  0  0  0  0  0  0  0  0  0  0  0
   -3.3780  -18.8991    0.0000 C   0  0  0  0  0  0  0  0  0  0  0  0
   -2.6588  -18.4857    0.0000 C   0  0  0  0  0  0  0  0  0  0  0  0
   -2.6619  -17.6547    0.0000 C   0  0  0  0  0  0  0  0  0  0  0  0
   -3.3800  -17.2459    0.0000 C   0  0  0  0  0  0  0  0  0  0  0  0
   -1.9495  -17.2387    0.0000 C   0  0  0  0  0  0  0  0  0  0  0  0
   -1.2330  -17.6476    0.0000 C   0  0  0  0  0  0  0  0  0  0  0  0
   -0.5206  -17.2315    0.0000 N   0  0  0  0  0  0  0  0  0  0  0  0
   -3.3795  -19.7241    0.0000 C   0  0  0  0  0  0  0  0  0  0  0  0
  2  3  1  0
  5  6  2  0
  6  1  1  0
  1  2  2  0
  5  7  1  0
  3  4  2  0
  7  8  1  0
  8  9  1  0
  4  5  1  0
  3 10  1  0
M  END

> <chembl_id>
CHEMBL448576

> <chembl_pref_name>
None

$$$$

     RDKit          2D

  8  7  0  0  0  0  0  0  0  0999 V2000
    7.0782   -0.3523    0.0000 Cl  0  0  0  0  0  0  0  0  0  0  0  0
    3.8417   -1.8845    0.0000 C   0  0  0  0  0  0  0  0  0  0  0  0
    3.3910   -2.5714    0.0000 N   0  0  0  0  0  0  0  0  0  0  0  0
    2.5957   -2.3564    0.0000 C   0  0  0  0  0  0  0  0  0  0  0  0
    2.5569   -1.5324    0.0000 C   0  0  0  0  0  0  0  0  0  0  0  0
    3.3293   -1.2411    0.0000 N   0  0  0  0  0  0  0  0  0  0  0  0
    1.8795   -2.7684    0.0000 C   0  0  0  0  0  0  0  0  0  0  0  0
    1.1614   -2.3570    0.0000 O   0  0  0  0  0  0  0  0  0  0  0  0
  2  3  2  0
  3  4  1  0
  4  5  2  0
  5  6  1  0
  2  6  1  0
  7  8  1  0
  4  7  1  0
M  END

> <chembl_id>
CHEMBL1255967

> <chembl_pref_name>
None

$$$$

     RDKit          2D

 10 10  0  0  0  0  0  0  0  0999 V2000
   -3.8048   -0.4272    0.0000 N   0  0  0  0  0  0  0  0  0  0  0  0
   -2.9406    0.0758    0.0000 C   0  0  0  0  0  0  0  0  0  0  0  0
   -2.0728   -0.4210    0.0000 C   0  0  0  0  0  0  0  0  0  0  0  0
   -1.2086    0.0820    0.0000 C   0  0  0  0  0  0  0  0  0  0  0  0
   -1.2122    1.0820    0.0000 C   0  0  0  0  0  0  0  0  0  0  0  0
   -0.3480    1.5852    0.0000 C   0  0  0  0  0  0  0  0  0  0  0  0
    0.5198    1.0882    0.0000 C   0  0  0  0  0  0  0  0  0  0  0  0
    1.3840    1.5914    0.0000 F   0  0  0  0  0  0  0  0  0  0  0  0
    0.5236    0.0882    0.0000 C   0  0  0  0  0  0  0  0  0  0  0  0
   -0.3408   -0.4148    0.0000 N   0  0  0  0  0  0  0  0  0  0  0  0
  1  2  1  0
  2  3  1  0
  3  4  1  0
  4  5  2  0
  5  6  1  0
  6  7  2  0
  7  8  1  0
  7  9  1  0
  9 10  2  0
 10  4  1  0
M  END

> <chembl_id>
CHEMBL4531710

> <chembl_pref_name>
None

$$$$

     RDKit          2D

  9  9  0  0  0  0  0  0  0  0999 V2000
    2.5973   -1.5031    0.0000 C   0  0  0  0  0  0  0  0  0  0  0  0
    1.2990   -0.7500    0.0000 C   0  0  0  0  0  0  0  0  0  0  0  0
    1.2990    0.7500    0.0000 C   0  0  0  0  0  0  0  0  0  0  0  0
    0.0000    1.5000    0.0000 C   0  0  0  0  0  0  0  0  0  0  0  0
   -1.2990    0.7500    0.0000 C   0  0  0  0  0  0  0  0  0  0  0  0
   -1.2990   -0.7500    0.0000 C   0  0  0  0  0  0  0  0  0  0  0  0
    0.0000   -1.5000    0.0000 C   0  0  0  0  0  0  0  0  0  0  0  0
    2.5956   -2.7031    0.0000 C   0  0  0  0  0  0  0  0  0  0  0  0
    2.3383    1.3500    0.0000 C   0  0  0  0  0  0  0  0  0  0  0  0
  1  2  1  0
  2  3  1  0
  3  4  2  0
  4  5  1  0
  5  6  2  0
  6  7  1  0
  2  7  2  0
  1  8  2  0
  3  9  1  0
M  END

> <chembl_id>
CHEMBL3427716

> <chembl_pref_name>
None

$$$$

     RDKit          2D

  9  9  0  0  0  0  0  0  0  0999 V2000
   13.4278  -21.3005    0.0000 O   0  0  0  0  0  0  0  0  0  0  0  0
   12.7212  -20.8919    0.0000 C   0  0  0  0  0  0  0  0  0  0  0  0
   12.0145  -21.3005    0.0000 C   0  0  0  0  0  0  0  0  0  0  0  0
   11.3078  -20.8919    0.0000 C   0  0  0  0  0  0  0  0  0  0  0  0
   10.5970  -21.3005    0.0000 O   0  0  0  0  0  0  0  0  0  0  0  0
   11.3078  -20.0747    0.0000 C   0  0  0  0  0  0  0  0  0  0  0  0
   12.0145  -19.6661    0.0000 C   0  0  0  0  0  0  0  0  0  0  0  0
   12.7212  -20.0747    0.0000 C   0  0  0  0  0  0  0  0  0  0  0  0
   10.5970  -19.6661    0.0000 F   0  0  0  0  0  0  0  0  0  0  0  0
  1  2  1  0
  2  3  1  0
  3  4  2  0
  4  5  1  0
  4  6  1  0
  6  7  2  0
  7  8  1  0
  2  8  2  0
  6  9  1  0
M  END

> <chembl_id>
CHEMBL2332777

> <chembl_pref_name>
None

$$$$

     RDKit          2D

 10 10  0  0  0  0  0  0  0  0999 V2000
    1.2026   -1.4222    0.0000 C   0  0  0  0  0  0  0  0  0  0  0  0
    0.9956   -0.4438    0.0000 N   0  0  0  0  0  0  0  0  0  0  0  0
    1.6656    0.2986    0.0000 C   0  0  0  0  0  0  0  0  0  0  0  0
    1.1666    1.1652    0.0000 N   0  0  0  0  0  0  0  0  0  0  0  0
    0.1882    0.9582    0.0000 C   0  0  0  0  0  0  0  0  0  0  0  0
    0.0826   -0.0360    0.0000 C   0  0  0  0  0  0  0  0  0  0  0  0
   -0.7840   -0.5350    0.0000 C   0  0  0  0  0  0  0  0  0  0  0  0
   -0.7852   -1.5350    0.0000 N   0  0  0  0  0  0  0  0  0  0  0  0
   -1.6494   -0.0340    0.0000 C   0  0  0  0  0  0  0  0  0  0  0  0
   -2.5160   -0.5332    0.0000 O   0  0  0  0  0  0  0  0  0  0  0  0
  1  2  1  0
  2  3  1  0
  3  4  2  0
  4  5  1  0
  5  6  2  0
  6  7  1  0
  7  8  1  0
  7  9  1  0
  9 10  1  0
  6  2  1  0
M  END

> <chembl_id>
CHEMBL4589555

> <chembl_pref_name>
None

$$$$

     RDKit          2D

 10 10  0  0  0  0  0  0  0  0999 V2000
    2.4700    2.8012    0.0000 C   0  0  0  0  0  0  0  0  0  0  0  0
    2.4692    1.8012    0.0000 O   0  0  0  0  0  0  0  0  0  0  0  0
    1.6028    1.3018    0.0000 C   0  0  0  0  0  0  0  0  0  0  0  0
    0.7372    1.8026    0.0000 C   0  0  0  0  0  0  0  0  0  0  0  0
   -0.1292    1.3032    0.0000 C   0  0  0  0  0  0  0  0  0  0  0  0
   -0.1300    0.3032    0.0000 C   0  0  0  0  0  0  0  0  0  0  0  0
   -0.9964   -0.1960    0.0000 C   0  0  0  0  0  0  0  0  0  0  0  0
   -1.8620    0.3046    0.0000 O   0  0  0  0  0  0  0  0  0  0  0  0
    0.7356   -0.1974    0.0000 C   0  0  0  0  0  0  0  0  0  0  0  0
    1.6020    0.3018    0.0000 N   0  0  0  0  0  0  0  0  0  0  0  0
  1  2  1  0
  2  3  1  0
  3  4  2  0
  4  5  1  0
  5  6  2  0
  6  7  1  0
  7  8  1  0
  6  9  1  0
  9 10  2  0
 10  3  1  0
M  END

> <chembl_id>
CHEMBL4563486

> <chembl_pref_name>
None

$$$$

     RDKit          2D

 10 11  0  0  0  0  0  0  0  0999 V2000
   -2.5620   -1.3370    0.0000 O   0  0  0  0  0  0  0  0  0  0  0  0
   -1.6964   -0.8364    0.0000 C   0  0  0  0  0  0  0  0  0  0  0  0
   -1.6972    0.1636    0.0000 C   0  0  0  0  0  0  0  0  0  0  0  0
   -0.8316    0.6644    0.0000 C   0  0  0  0  0  0  0  0  0  0  0  0
    0.0348    0.1650    0.0000 C   0  0  0  0  0  0  0  0  0  0  0  0
    0.9856    0.4748    0.0000 N   0  0  0  0  0  0  0  0  0  0  0  0
    1.5740   -0.3338    0.0000 N   0  0  0  0  0  0  0  0  0  0  0  0
    0.9868   -1.1432    0.0000 C   0  0  0  0  0  0  0  0  0  0  0  0
    0.0356   -0.8350    0.0000 C   0  0  0  0  0  0  0  0  0  0  0  0
   -0.8300   -1.3356    0.0000 C   0  0  0  0  0  0  0  0  0  0  0  0
  1  2  1  0
  2  3  1  0
  3  4  1  0
  4  5  1  0
  5  6  1  0
  6  7  1  0
  7  8  2  0
  8  9  1  0
  9 10  1  0
 10  2  1  0
  9  5  2  0
M  END

> <chembl_id>
CHEMBL4558975

> <chembl_pref_name>
None

$$$$

     RDKit          2D

  9  9  0  0  0  0  0  0  0  0999 V2000
   -4.4670   -0.2324    0.0000 N   0  0  0  0  0  0  0  0  0  0  0  0
   -3.6018   -0.7334    0.0000 C   0  0  0  0  0  0  0  0  0  0  0  0
   -2.7352   -0.2344    0.0000 C   0  0  0  0  0  0  0  0  0  0  0  0
   -1.8698   -0.7354    0.0000 C   0  0  0  0  0  0  0  0  0  0  0  0
   -1.0034   -0.2364    0.0000 N   0  0  0  0  0  0  0  0  0  0  0  0
   -0.8976    0.7580    0.0000 C   0  0  0  0  0  0  0  0  0  0  0  0
    0.0808    0.9650    0.0000 C   0  0  0  0  0  0  0  0  0  0  0  0
    0.5798    0.0982    0.0000 N   0  0  0  0  0  0  0  0  0  0  0  0
   -0.0902   -0.6442    0.0000 N   0  0  0  0  0  0  0  0  0  0  0  0
  1  2  1  0
  2  3  1  0
  3  4  1  0
  4  5  1  0
  5  6  1  0
  6  7  2  0
  7  8  1  0
  8  9  2  0
  9  5  1  0
M  END

> <chembl_id>
CHEMBL4588758

> <chembl_pref_name>
None

$$$$

     RDKit          2D

 11 11  0  0  0  0  0  0  0  0999 V2000
   -1.6448   -1.6572    0.0000 N   0  0  0  0  0  0  0  0  0  0  0  0
   -0.7778   -1.1590    0.0000 C   0  0  0  0  0  0  0  0  0  0  0  0
    0.0892   -0.6608    0.0000 C   0  0  0  0  0  0  0  0  0  0  0  0
    0.9542   -1.1624    0.0000 C   0  0  0  0  0  0  0  0  0  0  0  0
    1.8192   -1.6642    0.0000 N   0  0  0  0  0  0  0  0  0  0  0  0
    0.0912    0.3392    0.0000 C   0  0  0  0  0  0  0  0  0  0  0  0
   -0.7738    0.8410    0.0000 C   0  0  0  0  0  0  0  0  0  0  0  0
   -0.7718    1.8410    0.0000 C   0  0  0  0  0  0  0  0  0  0  0  0
    0.0954    2.3392    0.0000 C   0  0  0  0  0  0  0  0  0  0  0  0
    0.9604    1.8376    0.0000 C   0  0  0  0  0  0  0  0  0  0  0  0
    0.9584    0.8376    0.0000 N   0  0  0  0  0  0  0  0  0  0  0  0
  1  2  3  0
  2  3  1  0
  3  4  1  0
  4  5  3  0
  3  6  1  0
  6  7  2  0
  7  8  1  0
  8  9  2  0
  9 10  1  0
 10 11  2  0
 11  6  1  0
M  END

> <chembl_id>
CHEMBL4577272

> <chembl_pref_name>
None

$$$$

     RDKit          2D

  8  8  0  0  0  0  0  0  0  0999 V2000
   -3.6396   -0.5864    0.0000 N   0  0  0  0  0  0  0  0  0  0  0  0
   -2.7730   -0.0874    0.0000 C   0  0  0  0  0  0  0  0  0  0  0  0
   -1.9076   -0.5882    0.0000 C   0  0  0  0  0  0  0  0  0  0  0  0
   -1.0412   -0.0892    0.0000 C   0  0  0  0  0  0  0  0  0  0  0  0
   -0.9354    0.9050    0.0000 C   0  0  0  0  0  0  0  0  0  0  0  0
    0.0430    1.1120    0.0000 C   0  0  0  0  0  0  0  0  0  0  0  0
    0.5418    0.2454    0.0000 C   0  0  0  0  0  0  0  0  0  0  0  0
   -0.1280   -0.4970    0.0000 O   0  0  0  0  0  0  0  0  0  0  0  0
  1  2  1  0
  2  3  1  0
  3  4  1  0
  4  5  2  0
  5  6  1  0
  6  7  2  0
  7  8  1  0
  8  4  1  0
M  END

> <chembl_id>
CHEMBL4552984

> <chembl_pref_name>
None

$$$$

     RDKit          2D

 10 10  0  0  0  0  0  0  0  0999 V2000
   -1.7040   -1.8358    0.0000 C   0  0  0  0  0  0  0  0  0  0  0  0
   -1.7032   -0.8358    0.0000 C   0  0  0  0  0  0  0  0  0  0  0  0
   -2.5688   -0.3352    0.0000 O   0  0  0  0  0  0  0  0  0  0  0  0
   -0.8368   -0.3366    0.0000 C   0  0  0  0  0  0  0  0  0  0  0  0
    0.0288   -0.8372    0.0000 C   0  0  0  0  0  0  0  0  0  0  0  0
    0.8952   -0.3380    0.0000 N   0  0  0  0  0  0  0  0  0  0  0  0
    0.8960    0.6620    0.0000 C   0  0  0  0  0  0  0  0  0  0  0  0
    0.0304    1.1628    0.0000 C   0  0  0  0  0  0  0  0  0  0  0  0
   -0.8360    0.6634    0.0000 C   0  0  0  0  0  0  0  0  0  0  0  0
   -1.7016    1.1642    0.0000 C   0  0  0  0  0  0  0  0  0  0  0  0
  1  2  1  0
  2  3  2  0
  2  4  1  0
  4  5  2  0
  5  6  1  0
  6  7  2  0
  7  8  1  0
  8  9  2  0
  9 10  1  0
  9  4  1  0
M  END

> <chembl_id>
CHEMBL4580014

> <chembl_pref_name>
None

$$$$

     RDKit          2D

 10 11  0  0  0  0  0  0  0  0999 V2000
    1.1580    1.9206    0.0000 C   0  0  0  0  0  0  0  0  0  0  0  0
    0.9504    0.9424    0.0000 C   0  0  0  0  0  0  0  0  0  0  0  0
   -0.0440    0.8376    0.0000 N   0  0  0  0  0  0  0  0  0  0  0  0
   -0.5438   -0.0286    0.0000 C   0  0  0  0  0  0  0  0  0  0  0  0
   -0.1368   -0.9420    0.0000 C   0  0  0  0  0  0  0  0  0  0  0  0
   -0.8796   -1.6114    0.0000 C   0  0  0  0  0  0  0  0  0  0  0  0
   -1.7458   -1.1116    0.0000 N   0  0  0  0  0  0  0  0  0  0  0  0
   -1.5382   -0.1334    0.0000 C   0  0  0  0  0  0  0  0  0  0  0  0
   -0.4510    1.7510    0.0000 N   0  0  0  0  0  0  0  0  0  0  0  0
    0.2918    2.4204    0.0000 N   0  0  0  0  0  0  0  0  0  0  0  0
  1  2  2  0
  2  3  1  0
  3  4  1  0
  4  5  1  0
  5  6  1  0
  6  7  1  0
  7  8  1  0
  3  9  1  0
  9 10  2  0
 10  1  1  0
  8  4  1  0
M  END

> <chembl_id>
CHEMBL4530368

> <chembl_pref_name>
None

$$$$

     RDKit          2D

  7  7  0  0  0  0  0  0  0  0999 V2000
    7.2611  -14.3183    0.0000 S   0  0  0  0  0  0  0  0  0  0  0  0
    6.4765  -14.0633    0.0000 C   0  0  0  0  0  0  0  0  0  0  0  0
    6.4765  -13.2383    0.0000 N   0  0  0  0  0  0  0  0  0  0  0  0
    7.2611  -12.9834    0.0000 C   0  0  0  0  0  0  0  0  0  0  0  0
    7.7460  -13.6508    0.0000 C   0  0  0  0  0  0  0  0  0  0  0  0
    8.5710  -13.6508    0.0000 Cl  0  0  0  0  0  0  0  0  0  0  0  0
    5.8091  -14.5482    0.0000 N   0  0  0  0  0  0  0  0  0  0  0  0
  1  2  1  0
  2  3  2  0
  3  4  1  0
  4  5  2  0
  1  5  1  0
  5  6  1  0
  2  7  1  0
M  END

> <chembl_id>
CHEMBL2323848

> <chembl_pref_name>
None

$$$$

     RDKit          2D

  7  7  0  0  0  0  0  0  0  0999 V2000
    0.3773   -1.0145    0.0000 C   0  0  0  0  0  0  0  0  0  0  0  0
   -0.4477   -1.0145    0.0000 S   0  0  0  0  0  0  0  0  0  0  0  0
   -0.7027   -0.2299    0.0000 C   0  0  0  0  0  0  0  0  0  0  0  0
   -0.0352    0.2550    0.0000 C   0  0  0  0  0  0  0  0  0  0  0  0
    0.6322   -0.2299    0.0000 C   0  0  0  0  0  0  0  0  0  0  0  0
   -0.0352    1.0800    0.0000 C   0  0  0  0  0  0  0  0  0  0  0  0
   -0.7497    1.4925    0.0000 N   0  0  0  0  0  0  0  0  0  0  0  0
  1  2  1  0
  1  5  2  0
  3  2  1  0
  3  4  2  0
  4  5  1  0
  4  6  1  0
  6  7  1  0
M  END

> <chembl_id>
CHEMBL252602

> <chembl_pref_name>
None

$$$$

     RDKit          2D

  6  6  0  0  0  0  0  0  0  0999 V2000
    1.0255   -0.3667    0.0000 N   0  0  0  0  0  0  0  0  0  0  0  0
    1.4380   -1.6363    0.0000 N   0  0  0  0  0  0  0  0  0  0  0  0
    0.6130   -1.6363    0.0000 N   0  0  0  0  0  0  0  0  0  0  0  0
    1.0255    0.4583    0.0000 N   0  0  0  0  0  0  0  0  0  0  0  0
    1.6930   -0.8517    0.0000 C   0  0  0  0  0  0  0  0  0  0  0  0
    0.3581   -0.8517    0.0000 C   0  0  0  0  0  0  0  0  0  0  0  0
  1  4  1  0
  1  5  1  0
  1  6  1  0
  2  3  1  0
  2  5  2  0
  3  6  2  0
M  END

> <chembl_id>
CHEMBL1868166

> <chembl_pref_name>
None

$$$$

     RDKit          2D

 11 12  0  0  0  0  0  0  0  0999 V2000
    4.9792   -2.9792    0.0000 C   0  0  0  0  0  0  0  0  0  0  0  0
    4.9792   -2.3750    0.0000 C   0  0  0  0  0  0  0  0  0  0  0  0
    5.9292   -3.2417    0.0000 N   0  0  0  0  0  0  0  0  0  0  0  0
    5.3542   -2.0042    0.0000 O   0  0  0  0  0  0  0  0  0  0  0  0
    5.3417   -3.3375    0.0000 C   0  0  0  0  0  0  0  0  0  0  0  0
    6.2125   -2.6875    0.0000 C   0  0  0  0  0  0  0  0  0  0  0  0
    4.4542   -3.2792    0.0000 C   0  0  0  0  0  0  0  0  0  0  0  0
    5.9417   -2.1167    0.0000 C   0  0  0  0  0  0  0  0  0  0  0  0
    4.4542   -2.0750    0.0000 C   0  0  0  0  0  0  0  0  0  0  0  0
    3.9417   -2.9792    0.0000 C   0  0  0  0  0  0  0  0  0  0  0  0
    3.9417   -2.3750    0.0000 C   0  0  0  0  0  0  0  0  0  0  0  0
  2  1  1  0
  3  5  1  0
  4  2  1  0
  5  1  1  0
  6  3  1  0
  7  1  2  0
  8  4  1  0
  9  2  2  0
 10  7  1  0
 11 10  2  0
  9 11  1  0
  6  8  1  0
M  END

> <chembl_id>
CHEMBL118420

> <chembl_pref_name>
None

$$$$

     RDKit          2D

  9  9  0  0  0  0  0  0  0  0999 V2000
    6.0060   -2.7350    0.0000 C   0  0  0  0  0  0  0  0  0  0  0  0
    6.7195   -2.3195    0.0000 N   0  0  0  0  0  0  0  0  0  0  0  0
    7.4316   -1.9017    0.0000 N   0  0  0  0  0  0  0  0  0  0  0  0
    8.1448   -1.4847    0.0000 N   0  0  0  0  0  0  0  0  0  0  0  0
    5.2930   -2.3232    0.0000 C   0  0  0  0  0  0  0  0  0  0  0  0
    4.5799   -2.7380    0.0000 C   0  0  0  0  0  0  0  0  0  0  0  0
    4.5826   -3.5646    0.0000 C   0  0  0  0  0  0  0  0  0  0  0  0
    5.3043   -3.9746    0.0000 C   0  0  0  0  0  0  0  0  0  0  0  0
    6.0145   -3.5574    0.0000 C   0  0  0  0  0  0  0  0  0  0  0  0
  1  2  1  0
  2  3  2  0
  3  4  2  0
  1  5  2  0
  5  6  1  0
  6  7  2  0
  7  8  1  0
  8  9  2  0
  9  1  1  0
M  CHG  2   3   1   4  -1
M  END

> <chembl_id>
CHEMBL3236174

> <chembl_pref_name>
None

$$$$

     RDKit          2D

  9  9  0  0  0  0  0  0  0  0999 V2000
    2.6582   -0.2473    0.0000 F   0  0  0  0  0  0  0  0  0  0  0  0
    1.9437   -0.6598    0.0000 C   0  0  0  0  0  0  0  0  0  0  0  0
    1.9437   -1.4848    0.0000 C   0  0  0  0  0  0  0  0  0  0  0  0
    1.2292   -1.8973    0.0000 C   0  0  0  0  0  0  0  0  0  0  0  0
    0.5148   -1.4848    0.0000 C   0  0  0  0  0  0  0  0  0  0  0  0
    0.5148   -0.6598    0.0000 C   0  0  0  0  0  0  0  0  0  0  0  0
   -0.1997   -0.2473    0.0000 F   0  0  0  0  0  0  0  0  0  0  0  0
    1.2292   -0.2473    0.0000 C   0  0  0  0  0  0  0  0  0  0  0  0
    1.2292    0.5777    0.0000 O   0  0  0  0  0  0  0  0  0  0  0  0
  2  1  1  0
  3  2  2  0
  8  2  1  0
  4  3  1  0
  5  4  2  0
  6  5  1  0
  6  7  1  0
  8  6  2  0
  8  9  1  0
M  END

> <chembl_id>
CHEMBL1232721

> <chembl_pref_name>
None

$$$$

     RDKit          2D

 10 10  0  0  0  0  0  0  0  0999 V2000
    1.4018   -2.6827    0.0000 C   0  0  0  0  0  0  0  0  0  0  0  0
    1.4007   -3.5022    0.0000 N   0  0  0  0  0  0  0  0  0  0  0  0
    2.1087   -3.9112    0.0000 C   0  0  0  0  0  0  0  0  0  0  0  0
    2.8184   -3.5017    0.0000 C   0  0  0  0  0  0  0  0  0  0  0  0
    2.8156   -2.6791    0.0000 C   0  0  0  0  0  0  0  0  0  0  0  0
    2.1070   -2.2738    0.0000 C   0  0  0  0  0  0  0  0  0  0  0  0
    3.5217   -2.2678    0.0000 N   0  0  0  0  0  0  0  0  0  0  0  0
    4.2310   -2.6737    0.0000 C   0  0  0  0  0  0  0  0  0  0  0  0
    4.9371   -2.2625    0.0000 N   0  0  0  0  0  0  0  0  0  0  0  0
    4.2341   -3.4909    0.0000 O   0  0  0  0  0  0  0  0  0  0  0  0
  1  2  2  0
  2  3  1  0
  3  4  2  0
  4  5  1  0
  5  6  2  0
  6  1  1  0
  5  7  1  0
  7  8  1  0
  8  9  1  0
  8 10  2  0
M  END

> <chembl_id>
CHEMBL2414863

> <chembl_pref_name>
None

$$$$

     RDKit          2D

  8  8  0  0  0  0  0  0  0  0999 V2000
   -1.0896   -0.8353    0.0000 O   0  0  0  0  0  0  0  0  0  0  0  0
    0.3394    1.6397    0.0000 O   0  0  0  0  0  0  0  0  0  0  0  0
    0.3394   -0.8353    0.0000 N   0  0  0  0  0  0  0  0  0  0  0  0
    1.0539    0.4022    0.0000 N   0  0  0  0  0  0  0  0  0  0  0  0
   -0.3751   -0.4228    0.0000 C   0  0  0  0  0  0  0  0  0  0  0  0
    0.3394    0.8147    0.0000 C   0  0  0  0  0  0  0  0  0  0  0  0
   -0.3751    0.4022    0.0000 C   0  0  0  0  0  0  0  0  0  0  0  0
    1.0539   -0.4228    0.0000 C   0  0  0  0  0  0  0  0  0  0  0  0
  1  5  1  0
  2  6  1  0
  3  5  2  0
  3  8  1  0
  4  6  1  0
  4  8  2  0
  5  7  1  0
  6  7  2  0
M  END

> <chembl_id>
CHEMBL1722176

> <chembl_pref_name>
None

$$$$

     RDKit          2D

  9  9  0  0  0  0  0  0  0  0999 V2000
    2.0168  -15.9682    0.0000 C   0  0  0  0  0  0  0  0  0  0  0  0
    2.0157  -16.7877    0.0000 C   0  0  0  0  0  0  0  0  0  0  0  0
    2.7237  -17.1967    0.0000 C   0  0  0  0  0  0  0  0  0  0  0  0
    3.4334  -16.7873    0.0000 C   0  0  0  0  0  0  0  0  0  0  0  0
    3.4305  -15.9646    0.0000 C   0  0  0  0  0  0  0  0  0  0  0  0
    2.7219  -15.5593    0.0000 C   0  0  0  0  0  0  0  0  0  0  0  0
    2.7195  -14.7422    0.0000 O   0  0  0  0  0  0  0  0  0  0  0  0
    1.3076  -17.1958    0.0000 C   0  0  0  0  0  0  0  0  0  0  0  0
    0.6002  -16.7866    0.0000 O   0  0  0  0  0  0  0  0  0  0  0  0
  1  2  2  0
  2  3  1  0
  3  4  2  0
  4  5  1  0
  5  6  2  0
  6  1  1  0
  6  7  1  0
  2  8  1  0
  8  9  1  0
M  END

> <chembl_id>
CHEMBL3337531

> <chembl_pref_name>
None

$$$$

     RDKit          2D

 11 11  0  0  0  0  0  0  0  0999 V2000
   13.1281  -24.3151    0.0000 C   0  0  0  0  0  0  0  0  0  0  0  0
   12.4203  -23.9065    0.0000 C   0  0  0  0  0  0  0  0  0  0  0  0
   11.7126  -24.3151    0.0000 C   0  0  0  0  0  0  0  0  0  0  0  0
   11.0048  -23.9065    0.0000 C   0  0  0  0  0  0  0  0  0  0  0  0
   10.2970  -24.3151    0.0000 C   0  0  0  0  0  0  0  0  0  0  0  0
   11.0048  -23.0892    0.0000 C   0  0  0  0  0  0  0  0  0  0  0  0
   11.7126  -22.6806    0.0000 C   0  0  0  0  0  0  0  0  0  0  0  0
   12.4203  -23.0892    0.0000 C   0  0  0  0  0  0  0  0  0  0  0  0
   13.8359  -24.7237    0.0000 N   0  0  0  0  0  0  0  0  0  0  0  0
    9.5892  -24.7237    0.0000 N   0  0  0  0  0  0  0  0  0  0  0  0
   10.2971  -22.6806    0.0000 F   0  0  0  0  0  0  0  0  0  0  0  0
  1  2  1  0
  2  3  1  0
  3  4  2  0
  4  5  1  0
  4  6  1  0
  6  7  2  0
  7  8  1  0
  2  8  2  0
  1  9  3  0
  5 10  3  0
  6 11  1  0
M  END

> <chembl_id>
CHEMBL3248167

> <chembl_pref_name>
None

$$$$

     RDKit          2D

 10 10  0  0  0  0  0  0  0  0999 V2000
    8.3130   -9.1779    0.0000 C   0  0  0  0  0  0  0  0  0  0  0  0
    8.2975   -8.3609    0.0000 C   0  0  0  0  0  0  0  0  0  0  0  0
    7.5822   -7.9658    0.0000 C   0  0  0  0  0  0  0  0  0  0  0  0
    7.5666   -7.1488    0.0000 C   0  0  0  0  0  0  0  0  0  0  0  0
    8.2664   -6.7268    0.0000 C   0  0  0  0  0  0  0  0  0  0  0  0
    8.9818   -7.1219    0.0000 C   0  0  0  0  0  0  0  0  0  0  0  0
    8.9973   -7.9389    0.0000 C   0  0  0  0  0  0  0  0  0  0  0  0
    8.3286   -9.9950    0.0000 N   0  0  0  0  0  0  0  0  0  0  0  0
    9.6816   -6.6999    0.0000 C   0  0  0  0  0  0  0  0  0  0  0  0
    8.2509   -5.9098    0.0000 C   0  0  0  0  0  0  0  0  0  0  0  0
  1  2  1  0
  2  3  1  0
  3  4  2  0
  4  5  1  0
  5  6  2  0
  6  7  1  0
  2  7  2  0
  1  8  3  0
  6  9  1  0
  5 10  1  0
M  END

> <chembl_id>
CHEMBL3248214

> <chembl_pref_name>
None

$$$$
 
     RDKit          2D

  9  9  0  0  0  0  0  0  0  0999 V2000
    2.0903   -2.8749    0.0000 C   0  0  0  0  0  0  0  0  0  0  0  0
    2.0891   -3.7023    0.0000 C   0  0  0  0  0  0  0  0  0  0  0  0
    2.8039   -4.1152    0.0000 N   0  0  0  0  0  0  0  0  0  0  0  0
    3.5203   -3.7018    0.0000 C   0  0  0  0  0  0  0  0  0  0  0  0
    3.5175   -2.8714    0.0000 C   0  0  0  0  0  0  0  0  0  0  0  0
    2.8021   -2.4622    0.0000 C   0  0  0  0  0  0  0  0  0  0  0  0
    4.2355   -4.1132    0.0000 N   0  0  0  0  0  0  0  0  0  0  0  0
    4.2303   -2.4561    0.0000 C   0  0  0  0  0  0  0  0  0  0  0  0
    4.9464   -2.8659    0.0000 O   0  0  0  0  0  0  0  0  0  0  0  0
  1  2  2  0
  2  3  1  0
  3  4  2  0
  4  5  1  0
  5  6  2  0
  6  1  1  0
  4  7  1  0
  5  8  1  0
  8  9  1  0
M  END

> <chembl_id>
CHEMBL4438468

> <chembl_pref_name>
None

$$$$

     RDKit          2D

 10 10  0  0  0  0  0  0  0  0999 V2000
    8.6378   -8.2241    0.0000 C   0  0  0  0  0  0  0  0  0  0  0  0
    8.2252   -8.9386    0.0000 C   0  0  0  0  0  0  0  0  0  0  0  0
    8.6378   -9.6531    0.0000 C   0  0  0  0  0  0  0  0  0  0  0  0
    8.2252   -7.5097    0.0000 O   0  0  0  0  0  0  0  0  0  0  0  0
    7.4003   -8.9386    0.0000 C   0  0  0  0  0  0  0  0  0  0  0  0
    6.9877   -9.6531    0.0000 C   0  0  0  0  0  0  0  0  0  0  0  0
    6.1628   -9.6531    0.0000 C   0  0  0  0  0  0  0  0  0  0  0  0
    5.7502   -8.9386    0.0000 C   0  0  0  0  0  0  0  0  0  0  0  0
    6.1627   -8.2241    0.0000 C   0  0  0  0  0  0  0  0  0  0  0  0
    6.9878   -8.2241    0.0000 C   0  0  0  0  0  0  0  0  0  0  0  0
  1  2  1  0
  2  3  1  0
  1  4  1  0
  5  6  1  0
  6  7  2  0
  7  8  1  0
  8  9  2  0
  9 10  1  0
  5 10  2  0
  2  5  1  0
M  END

> <chembl_id>
CHEMBL2323841

> <chembl_pref_name>
None

$$$$

     RDKit          2D

  8  8  0  0  0  0  0  0  0  0999 V2000
   -1.8662    0.1686    0.0000 C   0  0  0  0  0  0  0  0  0  0  0  0
   -1.0010   -0.3324    0.0000 C   0  0  0  0  0  0  0  0  0  0  0  0
   -0.1344    0.1666    0.0000 N   0  0  0  0  0  0  0  0  0  0  0  0
    0.7788   -0.2412    0.0000 C   0  0  0  0  0  0  0  0  0  0  0  0
    1.4486    0.5012    0.0000 C   0  0  0  0  0  0  0  0  0  0  0  0
    2.4430    0.3956    0.0000 N   0  0  0  0  0  0  0  0  0  0  0  0
    0.9496    1.3678    0.0000 C   0  0  0  0  0  0  0  0  0  0  0  0
   -0.0286    1.1610    0.0000 N   0  0  0  0  0  0  0  0  0  0  0  0
  1  2  1  0
  2  3  1  0
  3  4  1  0
  4  5  2  0
  5  6  1  0
  5  7  1  0
  7  8  2  0
  8  3  1  0
M  END

> <chembl_id>
CHEMBL4527358

> <chembl_pref_name>
None

$$$$

     RDKit          2D

  9  9  0  0  0  0  0  0  0  0999 V2000
   -1.3112   -1.3830    0.0000 C   0  0  0  0  0  0  0  0  0  0  0  0
   -0.8102   -0.5176    0.0000 C   0  0  0  0  0  0  0  0  0  0  0  0
   -1.6756   -0.0168    0.0000 C   0  0  0  0  0  0  0  0  0  0  0  0
   -0.3112   -1.3842    0.0000 N   0  0  0  0  0  0  0  0  0  0  0  0
    0.0564   -0.0186    0.0000 C   0  0  0  0  0  0  0  0  0  0  0  0
    0.9694   -0.4264    0.0000 N   0  0  0  0  0  0  0  0  0  0  0  0
    1.6394    0.3160    0.0000 C   0  0  0  0  0  0  0  0  0  0  0  0
    1.1404    1.1824    0.0000 C   0  0  0  0  0  0  0  0  0  0  0  0
    0.1620    0.9756    0.0000 N   0  0  0  0  0  0  0  0  0  0  0  0
  1  2  1  0
  2  3  1  0
  2  4  1  0
  2  5  1  0
  5  6  2  0
  6  7  1  0
  7  8  2  0
  8  9  1  0
  9  5  1  0
M  END

> <chembl_id>
CHEMBL4558625

> <chembl_pref_name>
None

$$$$

     RDKit          2D

 10 10  0  0  0  0  0  0  0  0999 V2000
    0.0000    3.3000    0.0000 C   0  0  0  0  0  0  0  0  0  0  0  0
    0.0000    2.4750    0.0000 C   0  0  0  0  0  0  0  0  0  0  0  0
   -0.7145    2.0625    0.0000 C   0  0  0  0  0  0  0  0  0  0  0  0
    0.7145    2.0625    0.0000 N   0  0  0  0  0  0  0  0  0  0  0  0
    0.7145    1.2375    0.0000 C   0  0  0  0  0  0  0  0  0  0  0  0
    1.4289    0.8250    0.0000 N   0  0  0  0  0  0  0  0  0  0  0  0
    1.4289    0.0000    0.0000 C   0  0  0  0  0  0  0  0  0  0  0  0
    0.7145   -0.4125    0.0000 C   0  0  0  0  0  0  0  0  0  0  0  0
    0.0000    0.0000    0.0000 C   0  0  0  0  0  0  0  0  0  0  0  0
    0.0000    0.8250    0.0000 N   0  0  0  0  0  0  0  0  0  0  0  0
  1  2  1  0
  2  3  1  0
  2  4  1  0
  4  5  1  0
  5  6  2  0
  6  7  1  0
  7  8  2  0
  8  9  1  0
  9 10  2  0
  5 10  1  0
M  END

> <chembl_id>
CHEMBL1740513

> <chembl_pref_name>
ISAXONINE

$$$$

     RDKit          2D

  6  5  0  0  0  0  0  0  0  0999 V2000
    2.7667   -1.4625    0.0000 Cl  0  0  0  0  0  0  0  0  0  0  0  0
    3.9000   -0.9542    0.0000 N   0  0  0  0  0  0  0  0  0  0  0  0
    3.6500   -0.1667    0.0000 C   0  0  0  0  0  0  0  0  0  0  0  0
    4.3167    0.3083    0.0000 S   0  0  0  0  0  0  0  0  0  0  0  0
    4.7167   -0.9542    0.0000 C   0  0  0  0  0  0  0  0  0  0  0  0
    4.9750   -0.1792    0.0000 C   0  0  0  0  0  0  0  0  0  0  0  0
  3  2  2  0
  4  3  1  0
  5  2  1  0
  6  5  2  0
  6  4  1  0
M  END

> <chembl_id>
CHEMBL43686

> <chembl_pref_name>
HYDROCHLORTHIAZIDE

$$$$
 
     RDKit          2D

  9  9  0  0  0  0  0  0  0  0999 V2000
   12.9493  -13.1060    0.0000 C   0  0  0  0  0  0  0  0  0  0  0  0
   12.2801  -12.6235    0.0000 C   0  0  0  0  0  0  0  0  0  0  0  0
   12.5372  -11.8321    0.0000 N   0  0  0  0  0  0  0  0  0  0  0  0
   13.3614  -11.8321    0.0000 N   0  0  0  0  0  0  0  0  0  0  0  0
   13.6184  -12.6235    0.0000 C   0  0  0  0  0  0  0  0  0  0  0  0
   12.1208  -11.1162    0.0000 C   0  0  0  0  0  0  0  0  0  0  0  0
   11.2924  -11.1162    0.0000 F   0  0  0  0  0  0  0  0  0  0  0  0
   12.5372  -10.4003    0.0000 F   0  0  0  0  0  0  0  0  0  0  0  0
   11.7087  -10.4003    0.0000 F   0  0  0  0  0  0  0  0  0  0  0  0
  1  2  2  0
  2  3  1  0
  3  4  1  0
  4  5  2  0
  5  1  1  0
  3  6  1  0
  6  7  1  0
  6  8  1  0
  6  9  1  0
M  END

> <chembl_id>
CHEMBL4741206

> <chembl_pref_name>
None

$$$$

     RDKit          2D

 10 10  0  0  0  0  0  0  0  0999 V2000
    0.9280   -0.7013    0.0000 N   0  0  0  0  0  0  0  0  0  0  0  0
    0.2135   -1.1138    0.0000 C   0  0  0  0  0  0  0  0  0  0  0  0
    0.2135   -1.9388    0.0000 O   0  0  0  0  0  0  0  0  0  0  0  0
   -0.5010   -0.7012    0.0000 N   0  0  0  0  0  0  0  0  0  0  0  0
   -0.5010    0.1238    0.0000 C   0  0  0  0  0  0  0  0  0  0  0  0
   -0.5010    1.7737    0.0000 O   0  0  0  0  0  0  0  0  0  0  0  0
   -1.2155    0.5362    0.0000 O   0  0  0  0  0  0  0  0  0  0  0  0
    0.2135    0.5363    0.0000 C   0  0  0  0  0  0  0  0  0  0  0  0
    0.2135    1.3613    0.0000 C   0  0  0  0  0  0  0  0  0  0  0  0
    0.9280    0.1238    0.0000 C   0  0  0  0  0  0  0  0  0  0  0  0
  2  1  1  0
 10  1  1  0
  2  3  2  0
  2  4  1  0
  5  4  1  0
  5  7  2  0
  5  8  1  0
  9  6  1  0
  8  9  1  0
  8 10  2  0
M  END

> <chembl_id>
CHEMBL1233360

> <chembl_pref_name>
None

$$$$

     RDKit          2D

 10 10  0  0  0  0  0  0  0  0999 V2000
   -2.6149   -0.5161    0.0000 O   0  0  0  0  0  0  0  0  0  0  0  0
   -1.6587   -1.5781    0.0000 O   0  0  0  0  0  0  0  0  0  0  0  0
   -0.4325   -0.4740    0.0000 N   0  0  0  0  0  0  0  0  0  0  0  0
    0.9024   -0.4740    0.0000 N   0  0  0  0  0  0  0  0  0  0  0  0
    0.2349    0.0109    0.0000 C   0  0  0  0  0  0  0  0  0  0  0  0
   -1.2171   -0.2191    0.0000 C   0  0  0  0  0  0  0  0  0  0  0  0
   -0.1776   -1.2586    0.0000 C   0  0  0  0  0  0  0  0  0  0  0  0
   -1.8302   -0.7711    0.0000 C   0  0  0  0  0  0  0  0  0  0  0  0
    0.6474   -1.2586    0.0000 C   0  0  0  0  0  0  0  0  0  0  0  0
    0.2349    0.8359    0.0000 C   0  0  0  0  0  0  0  0  0  0  0  0
  1  8  2  0
  2  8  1  0
  3  5  1  0
  3  6  1  0
  3  7  1  0
  4  5  2  0
  4  9  1  0
  5 10  1  0
  6  8  1  0
  7  9  2  0
M  END

> <chembl_id>
CHEMBL1364480

> <chembl_pref_name>
None

$$$$

     RDKit          2D

  8  8  0  0  0  0  0  0  0  0999 V2000
    1.2746    0.6628    0.0000 C   0  0  0  0  0  0  0  0  0  0  0  0
    0.4642    0.0772    0.0000 C   0  0  0  0  0  0  0  0  0  0  0  0
   -0.4860    0.3884    0.0000 C   0  0  0  0  0  0  0  0  0  0  0  0
   -1.0758   -0.4190    0.0000 C   0  0  0  0  0  0  0  0  0  0  0  0
   -2.0758   -0.4166    0.0000 C   0  0  0  0  0  0  0  0  0  0  0  0
   -3.0758   -0.4142    0.0000 N   0  0  0  0  0  0  0  0  0  0  0  0
   -0.4902   -1.2296    0.0000 N   0  0  0  0  0  0  0  0  0  0  0  0
    0.4616   -0.9228    0.0000 O   0  0  0  0  0  0  0  0  0  0  0  0
  1  2  1  0
  2  3  2  0
  3  4  1  0
  4  5  1  0
  5  6  3  0
  4  7  2  0
  7  8  1  0
  8  2  1  0
M  END

> <chembl_id>
CHEMBL4566517

> <chembl_pref_name>
None

$$$$

     RDKit          2D

  9  9  0  0  0  0  0  0  0  0999 V2000
   -0.3580    2.9400    0.0000 N   0  0  0  0  0  0  0  0  0  0  0  0
   -0.3600    1.9400    0.0000 C   0  0  0  0  0  0  0  0  0  0  0  0
   -0.3620    0.9400    0.0000 C   0  0  0  0  0  0  0  0  0  0  0  0
    0.5030    0.4384    0.0000 C   0  0  0  0  0  0  0  0  0  0  0  0
    0.5010   -0.5616    0.0000 C   0  0  0  0  0  0  0  0  0  0  0  0
   -0.3660   -1.0600    0.0000 N   0  0  0  0  0  0  0  0  0  0  0  0
   -1.2310   -0.5582    0.0000 C   0  0  0  0  0  0  0  0  0  0  0  0
   -2.0980   -1.0564    0.0000 O   0  0  0  0  0  0  0  0  0  0  0  0
   -1.2290    0.4418    0.0000 C   0  0  0  0  0  0  0  0  0  0  0  0
  1  2  3  0
  2  3  1  0
  3  4  2  0
  4  5  1  0
  5  6  2  0
  6  7  1  0
  7  8  1  0
  7  9  2  0
  9  3  1  0
M  END

> <chembl_id>
CHEMBL4569333

> <chembl_pref_name>
None

$$$$

     RDKit          2D

 10 10  0  0  0  0  0  0  0  0999 V2000
   -1.7852   -1.5350    0.0000 C   0  0  0  0  0  0  0  0  0  0  0  0
   -1.7840   -0.5350    0.0000 C   0  0  0  0  0  0  0  0  0  0  0  0
   -2.6494   -0.0340    0.0000 C   0  0  0  0  0  0  0  0  0  0  0  0
   -3.5160   -0.5332    0.0000 N   0  0  0  0  0  0  0  0  0  0  0  0
   -0.9174   -0.0360    0.0000 C   0  0  0  0  0  0  0  0  0  0  0  0
   -0.8118    0.9582    0.0000 N   0  0  0  0  0  0  0  0  0  0  0  0
    0.1666    1.1652    0.0000 N   0  0  0  0  0  0  0  0  0  0  0  0
    0.6656    0.2986    0.0000 C   0  0  0  0  0  0  0  0  0  0  0  0
   -0.0044   -0.4438    0.0000 N   0  0  0  0  0  0  0  0  0  0  0  0
    0.2026   -1.4222    0.0000 C   0  0  0  0  0  0  0  0  0  0  0  0
  1  2  1  0
  2  3  1  0
  3  4  1  0
  2  5  1  0
  5  6  2  0
  6  7  1  0
  7  8  2  0
  8  9  1  0
  9 10  1  0
  9  5  1  0
M  END

> <chembl_id>
CHEMBL4592095

> <chembl_pref_name>
None

$$$$

     RDKit          2D

  9 10  0  0  0  0  0  0  0  0999 V2000
   -1.2338    0.1936    0.0000 C   0  0  0  0  0  0  0  0  0  0  0  0
   -0.6466    1.0032    0.0000 C   0  0  0  0  0  0  0  0  0  0  0  0
    0.3046    0.6948    0.0000 N   0  0  0  0  0  0  0  0  0  0  0  0
    0.3054   -0.3052    0.0000 C   0  0  0  0  0  0  0  0  0  0  0  0
   -0.6454   -0.6148    0.0000 N   0  0  0  0  0  0  0  0  0  0  0  0
    1.1718   -0.8044    0.0000 C   0  0  0  0  0  0  0  0  0  0  0  0
    2.0374   -0.3038    0.0000 C   0  0  0  0  0  0  0  0  0  0  0  0
    2.0366    0.6962    0.0000 C   0  0  0  0  0  0  0  0  0  0  0  0
    1.1702    1.1956    0.0000 C   0  0  0  0  0  0  0  0  0  0  0  0
  1  2  2  0
  2  3  1  0
  3  4  1  0
  4  5  2  0
  4  6  1  0
  6  7  1  0
  7  8  1  0
  8  9  1  0
  5  1  1  0
  9  3  1  0
M  END

> <chembl_id>
CHEMBL4537948

> <chembl_pref_name>
None

$$$$

     RDKit          2D

 11 12  0  0  0  0  0  0  0  0999 V2000
    2.0417   -2.7042    0.0000 C   0  0  0  0  0  0  0  0  0  0  0  0
    1.3250   -2.2917    0.0000 C   0  0  0  0  0  0  0  0  0  0  0  0
    2.7667   -2.2917    0.0000 N   0  0  0  0  0  0  0  0  0  0  0  0
    2.0417   -1.0417    0.0000 N   0  0  0  0  0  0  0  0  0  0  0  0
    2.7667   -1.4625    0.0000 C   0  0  0  0  0  0  0  0  0  0  0  0
    1.3292   -1.4625    0.0000 C   0  0  0  0  0  0  0  0  0  0  0  0
    2.0417   -3.5292    0.0000 N   0  0  0  0  0  0  0  0  0  0  0  0
    0.6125   -2.7042    0.0000 C   0  0  0  0  0  0  0  0  0  0  0  0
    0.6125   -1.0500    0.0000 C   0  0  0  0  0  0  0  0  0  0  0  0
   -0.1000   -2.2917    0.0000 C   0  0  0  0  0  0  0  0  0  0  0  0
   -0.1000   -1.4625    0.0000 C   0  0  0  0  0  0  0  0  0  0  0  0
  2  1  1  0
  3  1  2  0
  4  5  1  0
  5  3  1  0
  6  2  1  0
  7  1  1  0
  8  2  2  0
  9  6  2  0
 10  8  1  0
 11 10  2  0
  6  4  1  0
  9 11  1  0
M  END

> <chembl_id>
CHEMBL171798

> <chembl_pref_name>
None

$$$$

     RDKit          2D

  9  9  0  0  0  0  0  0  0  0999 V2000
   20.4111  -24.3226    0.0000 O   0  0  0  0  0  0  0  0  0  0  0  0
   20.8197  -23.6118    0.0000 C   0  0  0  0  0  0  0  0  0  0  0  0
   20.4111  -22.9051    0.0000 C   0  0  0  0  0  0  0  0  0  0  0  0
   20.8197  -22.1984    0.0000 C   0  0  0  0  0  0  0  0  0  0  0  0
   20.4111  -21.4917    0.0000 O   0  0  0  0  0  0  0  0  0  0  0  0
   21.6369  -22.1984    0.0000 C   0  0  0  0  0  0  0  0  0  0  0  0
   22.0455  -22.9051    0.0000 C   0  0  0  0  0  0  0  0  0  0  0  0
   21.6369  -23.6118    0.0000 C   0  0  0  0  0  0  0  0  0  0  0  0
   19.5939  -22.9051    0.0000 Cl  0  0  0  0  0  0  0  0  0  0  0  0
  1  2  1  0
  2  3  1  0
  3  4  2  0
  4  5  1  0
  4  6  1  0
  6  7  2  0
  7  8  1  0
  2  8  2  0
  3  9  1  0
M  END

> <chembl_id>
CHEMBL2332774

> <chembl_pref_name>
None

$$$$

     RDKit          2D

  9  9  0  0  0  0  0  0  0  0999 V2000
   12.7444    2.2167    0.0000 C   0  0  0  0  0  0  0  0  0  0  0  0
   12.7432    1.3893    0.0000 C   0  0  0  0  0  0  0  0  0  0  0  0
   13.4581    0.9765    0.0000 N   0  0  0  0  0  0  0  0  0  0  0  0
   14.1745    1.3898    0.0000 C   0  0  0  0  0  0  0  0  0  0  0  0
   14.1716    2.2203    0.0000 N   0  0  0  0  0  0  0  0  0  0  0  0
   13.4563    2.6295    0.0000 C   0  0  0  0  0  0  0  0  0  0  0  0
   14.8896    0.9784    0.0000 N   0  0  0  0  0  0  0  0  0  0  0  0
   14.8909    0.1534    0.0000 C   0  0  0  0  0  0  0  0  0  0  0  0
   15.6060   -0.2579    0.0000 C   0  0  0  0  0  0  0  0  0  0  0  0
  4  5  1  0
  2  3  1  0
  5  6  2  0
  6  1  1  0
  1  2  2  0
  4  7  1  0
  3  4  2  0
  7  8  1  0
  8  9  1  0
M  END

> <chembl_id>
CHEMBL1649893

> <chembl_pref_name>
None

$$$$

     RDKit          2D

 11 11  0  0  0  0  0  0  0  0999 V2000
    3.6223   -5.0476    0.0000 N   0  0  0  0  0  0  0  0  0  0  0  0
    3.6211   -5.8671    0.0000 C   0  0  0  0  0  0  0  0  0  0  0  0
    4.3292   -6.2761    0.0000 C   0  0  0  0  0  0  0  0  0  0  0  0
    5.0389   -5.8666    0.0000 C   0  0  0  0  0  0  0  0  0  0  0  0
    5.0360   -5.0440    0.0000 C   0  0  0  0  0  0  0  0  0  0  0  0
    4.3274   -4.6387    0.0000 C   0  0  0  0  0  0  0  0  0  0  0  0
    5.7422   -4.6327    0.0000 N   0  0  0  0  0  0  0  0  0  0  0  0
    6.4514   -5.0386    0.0000 C   0  0  0  0  0  0  0  0  0  0  0  0
    7.1576   -4.6274    0.0000 C   0  0  0  0  0  0  0  0  0  0  0  0
    7.8668   -5.0333    0.0000 C   0  0  0  0  0  0  0  0  0  0  0  0
    6.4545   -5.8558    0.0000 O   0  0  0  0  0  0  0  0  0  0  0  0
  1  2  2  0
  2  3  1  0
  3  4  2  0
  4  5  1  0
  5  6  2  0
  6  1  1  0
  5  7  1  0
  7  8  1  0
  8  9  1  0
  9 10  2  0
  8 11  2  0
M  END

> <chembl_id>
CHEMBL3309327

> <chembl_pref_name>
None

$$$$

     RDKit          2D

  9  9  0  0  0  0  0  0  0  0999 V2000
   13.7370   -3.9562    0.0000 C   0  0  0  0  0  0  0  0  0  0  0  0
   13.5215   -4.7524    0.0000 C   0  0  0  0  0  0  0  0  0  0  0  0
   14.2081   -5.2023    0.0000 N   0  0  0  0  0  0  0  0  0  0  0  0
   14.8523   -4.6882    0.0000 C   0  0  0  0  0  0  0  0  0  0  0  0
   14.5611   -3.9166    0.0000 C   0  0  0  0  0  0  0  0  0  0  0  0
   15.6487   -4.9039    0.0000 C   0  0  0  0  0  0  0  0  0  0  0  0
   15.8581   -5.7020    0.0000 O   0  0  0  0  0  0  0  0  0  0  0  0
   12.7496   -5.0436    0.0000 C   0  0  0  0  0  0  0  0  0  0  0  0
   12.1094   -4.5243    0.0000 O   0  0  0  0  0  0  0  0  0  0  0  0
  4  5  2  0
  5  1  1  0
  1  2  2  0
  4  6  1  0
  6  7  2  0
  2  3  1  0
  2  8  1  0
  3  4  1  0
  8  9  1  0
M  END

> <chembl_id>
CHEMBL499556

> <chembl_pref_name>
None

$$$$

     RDKit          2D

  9  9  0  0  0  0  0  0  0  0999 V2000
    2.4750  -24.2039    0.0000 C   0  0  0  0  0  0  0  0  0  0  0  0
    3.1895  -23.7914    0.0000 C   0  0  0  0  0  0  0  0  0  0  0  0
    3.9039  -24.2039    0.0000 N   0  0  0  0  0  0  0  0  0  0  0  0
    3.1895  -22.9664    0.0000 O   0  0  0  0  0  0  0  0  0  0  0  0
    3.9039  -25.0289    0.0000 C   0  0  0  0  0  0  0  0  0  0  0  0
    3.2357  -25.5084    0.0000 C   0  0  0  0  0  0  0  0  0  0  0  0
    3.4908  -26.2939    0.0000 C   0  0  0  0  0  0  0  0  0  0  0  0
    4.3169  -26.2926    0.0000 C   0  0  0  0  0  0  0  0  0  0  0  0
    4.5696  -25.5063    0.0000 O   0  0  0  0  0  0  0  0  0  0  0  0
  1  2  1  0
  2  3  1  0
  2  4  1  0
  3  5  1  0
  6  7  1  0
  5  6  2  0
  7  8  2  0
  8  9  1  0
  9  5  1  0
M  END

> <chembl_id>
CHEMBL2262084

> <chembl_pref_name>
None

$$$$

     RDKit          2D

  9  9  0  0  0  0  0  0  0  0999 V2000
    0.3554    2.5902    0.0000 N   0  0  0  0  0  0  0  0  0  0  0  0
   -0.5116    2.0920    0.0000 C   0  0  0  0  0  0  0  0  0  0  0  0
   -0.5136    1.0920    0.0000 C   0  0  0  0  0  0  0  0  0  0  0  0
    0.3514    0.5904    0.0000 C   0  0  0  0  0  0  0  0  0  0  0  0
    0.3494   -0.4096    0.0000 C   0  0  0  0  0  0  0  0  0  0  0  0
   -0.5176   -0.9080    0.0000 N   0  0  0  0  0  0  0  0  0  0  0  0
   -1.3826   -0.4062    0.0000 C   0  0  0  0  0  0  0  0  0  0  0  0
   -2.2498   -0.9044    0.0000 O   0  0  0  0  0  0  0  0  0  0  0  0
   -1.3806    0.5938    0.0000 C   0  0  0  0  0  0  0  0  0  0  0  0
  1  2  1  0
  2  3  1  0
  3  4  2  0
  4  5  1  0
  5  6  2  0
  6  7  1  0
  7  8  1  0
  7  9  2  0
  9  3  1  0
M  END

> <chembl_id>
CHEMBL4559667

> <chembl_pref_name>
None

$$$$

     RDKit          2D

  9  9  0  0  0  0  0  0  0  0999 V2000
    3.5417   -2.2542    0.0000 N   0  0  0  0  0  0  0  0  0  0  0  0
    3.5417   -3.0792    0.0000 C   0  0  0  0  0  0  0  0  0  0  0  0
    4.2542   -1.8417    0.0000 O   0  0  0  0  0  0  0  0  0  0  0  0
    2.8292   -1.8417    0.0000 C   0  0  0  0  0  0  0  0  0  0  0  0
    2.8292   -3.4917    0.0000 C   0  0  0  0  0  0  0  0  0  0  0  0
    4.2625   -3.4917    0.0000 C   0  0  0  0  0  0  0  0  0  0  0  0
    4.2625   -4.3167    0.0000 C   0  0  0  0  0  0  0  0  0  0  0  0
    2.8292   -4.3167    0.0000 C   0  0  0  0  0  0  0  0  0  0  0  0
    3.5417   -4.7292    0.0000 C   0  0  0  0  0  0  0  0  0  0  0  0
  2  1  1  0
  3  1  1  0
  4  1  1  0
  5  2  1  0
  6  2  2  0
  7  6  1  0
  8  5  2  0
  9  7  2  0
  8  9  1  0
M  END

> <chembl_id>
CHEMBL150411

> <chembl_pref_name>
None

$$$$
 
     RDKit          2D

 10 10  0  0  0  0  0  0  0  0999 V2000
   10.9661  -11.2000    0.0000 C   0  0  0  0  0  0  0  0  0  0  0  0
   11.6832  -10.7896    0.0000 C   0  0  0  0  0  0  0  0  0  0  0  0
   12.3959  -11.2000    0.0000 C   0  0  0  0  0  0  0  0  0  0  0  0
   12.3959  -12.0250    0.0000 C   0  0  0  0  0  0  0  0  0  0  0  0
   11.6832  -12.4396    0.0000 N   0  0  0  0  0  0  0  0  0  0  0  0
   10.9661  -12.0250    0.0000 C   0  0  0  0  0  0  0  0  0  0  0  0
   10.2536  -12.4394    0.0000 C   0  0  0  0  0  0  0  0  0  0  0  0
   13.1085  -10.7898    0.0000 O   0  0  0  0  0  0  0  0  0  0  0  0
   11.6832   -9.9649    0.0000 O   0  0  0  0  0  0  0  0  0  0  0  0
    9.5327  -12.0262    0.0000 O   0  0  0  0  0  0  0  0  0  0  0  0
  1  2  1  0
  3  2  1  0
  4  3  2  0
  5  4  1  0
  6  5  1  0
  1  6  2  0
  6  7  1  0
  3  8  1  0
  2  9  2  0
  7 10  1  0
M  END

> <chembl_id>
CHEMBL4779135

> <chembl_pref_name>
None

$$$$

     RDKit          2D

 10 10  0  0  0  0  0  0  0  0999 V2000
    0.4830   -0.6189    0.0000 C   0  0  0  0  0  0  0  0  0  0  0  0
    0.4830   -1.4439    0.0000 C   0  0  0  0  0  0  0  0  0  0  0  0
   -0.2315   -1.8564    0.0000 C   0  0  0  0  0  0  0  0  0  0  0  0
   -0.9460   -1.4439    0.0000 C   0  0  0  0  0  0  0  0  0  0  0  0
   -0.9460   -0.6189    0.0000 C   0  0  0  0  0  0  0  0  0  0  0  0
   -0.2315   -0.2064    0.0000 C   0  0  0  0  0  0  0  0  0  0  0  0
   -0.2315    0.6186    0.0000 N   0  0  0  0  0  0  0  0  0  0  0  0
    0.4830    1.0311    0.0000 C   0  0  0  0  0  0  0  0  0  0  0  0
    0.4830    1.8561    0.0000 C   0  0  0  0  0  0  0  0  0  0  0  0
    0.4830    2.6811    0.0000 N   0  0  0  0  0  0  0  0  0  0  0  0
  2  1  2  0
  1  6  1  0
  3  2  1  0
  3  4  2  0
  4  5  1  0
  5  6  2  0
  6  7  1  0
  8  7  1  0
  9  8  1  0
  9 10  3  0
M  END

> <chembl_id>
CHEMBL1229843

> <chembl_pref_name>
(PHENYLAMINO)ACETONITRILE

$$$$

     RDKit          2D

  8  8  0  0  0  0  0  0  0  0999 V2000
   -1.7408    0.0484    0.0000 C   0  0  0  0  0  0  0  0  0  0  0  0
   -0.8728    0.5450    0.0000 C   0  0  0  0  0  0  0  0  0  0  0  0
   -0.8688    1.5448    0.0000 O   0  0  0  0  0  0  0  0  0  0  0  0
   -0.0088    0.0416    0.0000 C   0  0  0  0  0  0  0  0  0  0  0  0
    0.0918   -0.9534    0.0000 N   0  0  0  0  0  0  0  0  0  0  0  0
    1.0692   -1.1652    0.0000 C   0  0  0  0  0  0  0  0  0  0  0  0
    1.5726   -0.3010    0.0000 C   0  0  0  0  0  0  0  0  0  0  0  0
    0.9064    0.4446    0.0000 N   0  0  0  0  0  0  0  0  0  0  0  0
  1  2  1  0
  2  3  1  0
  2  4  1  0
  4  5  2  0
  5  6  1  0
  6  7  2  0
  7  8  1  0
  8  4  1  0
M  END

> <chembl_id>
CHEMBL4537342

> <chembl_pref_name>
None

$$$$

     RDKit          2D

 11 12  0  0  0  0  0  0  0  0999 V2000
   -2.5738   -0.3554    0.0000 C   0  0  0  0  0  0  0  0  0  0  0  0
   -1.7110    0.1502    0.0000 C   0  0  0  0  0  0  0  0  0  0  0  0
   -1.7174    1.1502    0.0000 N   0  0  0  0  0  0  0  0  0  0  0  0
   -0.8546    1.6556    0.0000 C   0  0  0  0  0  0  0  0  0  0  0  0
    0.0146    1.1612    0.0000 C   0  0  0  0  0  0  0  0  0  0  0  0
    0.0210    0.1612    0.0000 C   0  0  0  0  0  0  0  0  0  0  0  0
    0.8902   -0.3332    0.0000 C   0  0  0  0  0  0  0  0  0  0  0  0
    1.5280    0.4370    0.0000 N   0  0  0  0  0  0  0  0  0  0  0  0
    0.5542   -1.2750    0.0000 C   0  0  0  0  0  0  0  0  0  0  0  0
    1.5378   -1.0950    0.0000 C   0  0  0  0  0  0  0  0  0  0  0  0
   -0.8418   -0.3442    0.0000 N   0  0  0  0  0  0  0  0  0  0  0  0
  1  2  1  0
  2  3  2  0
  3  4  1  0
  4  5  2  0
  5  6  1  0
  6  7  1  0
  7  8  1  0
  7  9  1  0
  9 10  1  0
  6 11  2  0
 11  2  1  0
 10  7  1  0
M  END

> <chembl_id>
CHEMBL4572558

> <chembl_pref_name>
None

$$$$

     RDKit          2D

 10 10  0  0  0  0  0  0  0  0999 V2000
    0.8350    1.4606    0.0000 C   0  0  0  0  0  0  0  0  0  0  0  0
    0.8314    0.4606    0.0000 C   0  0  0  0  0  0  0  0  0  0  0  0
    1.6956   -0.0424    0.0000 C   0  0  0  0  0  0  0  0  0  0  0  0
    1.6920   -1.0424    0.0000 N   0  0  0  0  0  0  0  0  0  0  0  0
    0.8242   -1.5394    0.0000 C   0  0  0  0  0  0  0  0  0  0  0  0
   -0.0400   -1.0362    0.0000 C   0  0  0  0  0  0  0  0  0  0  0  0
   -0.0364   -0.0362    0.0000 C   0  0  0  0  0  0  0  0  0  0  0  0
   -0.9006    0.4668    0.0000 C   0  0  0  0  0  0  0  0  0  0  0  0
   -1.7684   -0.0300    0.0000 C   0  0  0  0  0  0  0  0  0  0  0  0
   -2.6326    0.4730    0.0000 N   0  0  0  0  0  0  0  0  0  0  0  0
  1  2  1  0
  2  3  2  0
  3  4  1  0
  4  5  2  0
  5  6  1  0
  6  7  2  0
  7  8  1  0
  8  9  1  0
  9 10  1  0
  7  2  1  0
M  END

> <chembl_id>
CHEMBL4555538

> <chembl_pref_name>
None

$$$$

     RDKit          2D

 10 10  0  0  0  0  0  0  0  0999 V2000
    1.4289   -0.8250    0.0000 N   0  0  0  0  0  0  0  0  0  0  0  0
   -0.0000   -1.6500    0.0000 N   0  0  0  0  0  0  0  0  0  0  0  0
    0.7145   -0.4125    0.0000 C   0  0  0  0  0  0  0  0  0  0  0  0
    0.0000   -0.8250    0.0000 C   0  0  0  0  0  0  0  0  0  0  0  0
   -0.7145   -0.4125    0.0000 C   0  0  0  0  0  0  0  0  0  0  0  0
   -0.7145    0.4125    0.0000 C   0  0  0  0  0  0  0  0  0  0  0  0
    0.0000    0.8250    0.0000 C   0  0  0  0  0  0  0  0  0  0  0  0
    0.7145    0.4125    0.0000 C   0  0  0  0  0  0  0  0  0  0  0  0
   -1.4289    0.8250    0.0000 C   0  0  0  0  0  0  0  0  0  0  0  0
   -0.0000    1.6500    0.0000 C   0  0  0  0  0  0  0  0  0  0  0  0
  3  1  1  0
  4  2  1  0
  3  4  2  0
  3  8  1  0
  4  5  1  0
  5  6  2  0
  6  7  1  0
  6  9  1  0
  7  8  2  0
  7 10  1  0
M  END

> <chembl_id>
CHEMBL1229654

> <chembl_pref_name>
None

$$$$

     RDKit          2D

 10 10  0  0  0  0  0  0  0  0999 V2000
   37.7019   -4.6009    0.0000 N   0  0  0  0  0  0  0  0  0  0  0  0
   38.3658   -5.0774    0.0000 O   0  0  0  0  0  0  0  0  0  0  0  0
   39.0254   -4.5947    0.0000 N   0  0  0  0  0  0  0  0  0  0  0  0
   38.7679   -3.8164    0.0000 C   0  0  0  0  0  0  0  0  0  0  0  0
   37.9516   -3.8240    0.0000 C   0  0  0  0  0  0  0  0  0  0  0  0
   39.8037   -4.8438    0.0000 O   0  0  0  0  0  0  0  0  0  0  0  0
   39.2434   -3.1518    0.0000 C   0  0  0  0  0  0  0  0  0  0  0  0
   37.4672   -3.1659    0.0000 N   0  0  0  0  0  0  0  0  0  0  0  0
   37.7949   -2.4173    0.0000 O   0  0  0  0  0  0  0  0  0  0  0  0
   36.6550   -3.2564    0.0000 O   0  0  0  0  0  0  0  0  0  0  0  0
  1  2  1  0
  2  3  1  0
  3  4  2  0
  4  5  1  0
  5  1  2  0
  3  6  1  0
  4  7  1  0
  5  8  1  0
  8  9  1  0
  8 10  2  0
M  CHG  4   3   1   6  -1   8   1   9  -1
M  END

> <chembl_id>
CHEMBL3917651

> <chembl_pref_name>
None

$$$$
 
     RDKit          2D

 10 10  0  0  0  0  0  0  0  0999 V2000
   35.4680  -24.9532    0.0000 C   0  0  0  0  0  0  0  0  0  0  0  0
   35.4668  -25.7727    0.0000 C   0  0  0  0  0  0  0  0  0  0  0  0
   36.1749  -26.1817    0.0000 C   0  0  0  0  0  0  0  0  0  0  0  0
   36.8845  -25.7722    0.0000 C   0  0  0  0  0  0  0  0  0  0  0  0
   36.8817  -24.9496    0.0000 C   0  0  0  0  0  0  0  0  0  0  0  0
   36.1731  -24.5443    0.0000 C   0  0  0  0  0  0  0  0  0  0  0  0
   37.5879  -24.5383    0.0000 C   0  0  0  0  0  0  0  0  0  0  0  0
   37.5848  -23.7211    0.0000 O   0  0  0  0  0  0  0  0  0  0  0  0
   37.5929  -26.1797    0.0000 C   0  0  0  0  0  0  0  0  0  0  0  0
   38.3012  -26.5872    0.0000 N   0  0  0  0  0  0  0  0  0  0  0  0
  1  2  2  0
  2  3  1  0
  3  4  2  0
  4  5  1  0
  5  6  2  0
  6  1  1  0
  5  7  1  0
  7  8  2  0
  4  9  1  0
  9 10  3  0
M  END

> <chembl_id>
CHEMBL4469993

> <chembl_pref_name>
None

$$$$

     RDKit          2D

 11 11  0  0  0  0  0  0  0  0999 V2000
    2.4763  -11.5769    0.0000 C   0  0  0  0  0  0  0  0  0  0  0  0
    3.8878  -12.4023    0.0000 C   0  0  0  0  0  0  0  0  0  0  0  0
    5.2994  -12.4023    0.0000 N   0  0  0  0  0  0  0  0  0  0  0  0
    3.1862  -11.1724    0.0000 C   0  0  0  0  0  0  0  0  0  0  0  0
    2.4805  -12.4023    0.0000 C   0  0  0  0  0  0  0  0  0  0  0  0
    3.8920  -11.5810    0.0000 C   0  0  0  0  0  0  0  0  0  0  0  0
    3.1862  -12.8068    0.0000 C   0  0  0  0  0  0  0  0  0  0  0  0
    4.5977  -12.8109    0.0000 C   0  0  0  0  0  0  0  0  0  0  0  0
    1.7649  -11.1707    0.0000 C   0  0  0  0  0  0  0  0  0  0  0  0
    1.0574  -10.7619    0.0000 N   0  0  0  0  0  0  0  0  0  0  0  0
    6.0086  -12.8083    0.0000 C   0  0  0  0  0  0  0  0  0  0  0  0
  2  7  1  0
  3  8  1  0
  4  1  2  0
  5  1  1  0
  6  4  1  0
  7  5  2  0
  8  2  1  0
  6  2  2  0
  9 10  3  0
  1  9  1  0
  3 11  1  0
M  END

> <chembl_id>
CHEMBL4098672

> <chembl_pref_name>
None

$$$$

     RDKit          2D

 11 12  0  0  0  0  0  0  0  0999 V2000
   -1.2964    1.4973    0.0000 C   0  0  0  0  0  0  0  0  0  0  0  0
   -2.6111    0.7486    0.0000 C   0  0  0  0  0  0  0  0  0  0  0  0
   -2.6111   -0.7486    0.0000 N   0  0  0  0  0  0  0  0  0  0  0  0
   -1.2964   -1.4973    0.0000 C   0  0  0  0  0  0  0  0  0  0  0  0
    0.0000   -0.7486    0.0000 C   0  0  0  0  0  0  0  0  0  0  0  0
    1.2964   -1.4973    0.0000 C   0  0  0  0  0  0  0  0  0  0  0  0
    2.5929   -0.7486    0.0000 C   0  0  0  0  0  0  0  0  0  0  0  0
    2.5929    0.7486    0.0000 C   0  0  0  0  0  0  0  0  0  0  0  0
    1.2964    1.4973    0.0000 C   0  0  0  0  0  0  0  0  0  0  0  0
    0.0000    0.7486    0.0000 C   0  0  0  0  0  0  0  0  0  0  0  0
    1.2964    2.6973    0.0000 O   0  0  0  0  0  0  0  0  0  0  0  0
  1  2  2  0
  2  3  1  0
  3  4  2  0
  4  5  1  0
  5  6  1  0
  6  7  1  0
  7  8  1  0
  8  9  1  0
  9 10  1  0
  1 10  1  0
  5 10  2  0
  9 11  2  0
M  END

> <chembl_id>
CHEMBL3585999

> <chembl_pref_name>
None

$$$$

     RDKit          2D

 10 10  0  0  0  0  0  0  0  0999 V2000
    7.7146   -9.0586    0.0000 C   0  0  0  0  0  0  0  0  0  0  0  0
    6.9982   -9.4710    0.0000 C   0  0  0  0  0  0  0  0  0  0  0  0
    6.9979  -10.2999    0.0000 C   0  0  0  0  0  0  0  0  0  0  0  0
    7.7133  -10.7132    0.0000 C   0  0  0  0  0  0  0  0  0  0  0  0
    8.4267  -10.2999    0.0000 C   0  0  0  0  0  0  0  0  0  0  0  0
    8.4275   -9.4722    0.0000 C   0  0  0  0  0  0  0  0  0  0  0  0
    9.1426   -9.0609    0.0000 C   0  0  0  0  0  0  0  0  0  0  0  0
    9.8564   -9.4745    0.0000 C   0  0  0  0  0  0  0  0  0  0  0  0
    9.1412  -10.7123    0.0000 O   0  0  0  0  0  0  0  0  0  0  0  0
   10.5715   -9.0633    0.0000 O   0  0  0  0  0  0  0  0  0  0  0  0
  1  2  2  0
  2  3  1  0
  3  4  2  0
  4  5  1  0
  5  6  2  0
  6  1  1  0
  6  7  1  0
  7  8  1  0
  5  9  1  0
  8 10  1  0
M  END

> <chembl_id>
CHEMBL4075005

> <chembl_pref_name>
None

$$$$

     RDKit          2D

 10 10  0  0  0  0  0  0  0  0999 V2000
    0.6660    1.8842    0.0000 C   0  0  0  0  0  0  0  0  0  0  0  0
   -0.2010    1.3858    0.0000 N   0  0  0  0  0  0  0  0  0  0  0  0
   -0.2030    0.3860    0.0000 C   0  0  0  0  0  0  0  0  0  0  0  0
    0.6620   -0.1158    0.0000 C   0  0  0  0  0  0  0  0  0  0  0  0
    0.6600   -1.1158    0.0000 C   0  0  0  0  0  0  0  0  0  0  0  0
   -0.2070   -1.6140    0.0000 C   0  0  0  0  0  0  0  0  0  0  0  0
   -1.0720   -1.1124    0.0000 N   0  0  0  0  0  0  0  0  0  0  0  0
   -1.0700   -0.1124    0.0000 C   0  0  0  0  0  0  0  0  0  0  0  0
   -1.9350    0.3894    0.0000 C   0  0  0  0  0  0  0  0  0  0  0  0
   -2.8000    0.8910    0.0000 N   0  0  0  0  0  0  0  0  0  0  0  0
  1  2  1  0
  2  3  1  0
  3  4  2  0
  4  5  1  0
  5  6  2  0
  6  7  1  0
  7  8  2  0
  8  9  1  0
  9 10  3  0
  8  3  1  0
M  END

> <chembl_id>
CHEMBL4566687

> <chembl_pref_name>
None

$$$$
 
     RDKit          2D

 10 11  0  0  0  0  0  0  0  0999 V2000
    3.0304   -8.0543    0.0000 C   0  0  0  0  0  0  0  0  0  0  0  0
    3.0293   -8.8813    0.0000 C   0  0  0  0  0  0  0  0  0  0  0  0
    3.7437   -9.2939    0.0000 C   0  0  0  0  0  0  0  0  0  0  0  0
    4.4598   -8.8808    0.0000 C   0  0  0  0  0  0  0  0  0  0  0  0
    4.4569   -8.0507    0.0000 C   0  0  0  0  0  0  0  0  0  0  0  0
    3.7419   -7.6418    0.0000 C   0  0  0  0  0  0  0  0  0  0  0  0
    5.1682   -7.6320    0.0000 C   0  0  0  0  0  0  0  0  0  0  0  0
    5.9654   -7.8425    0.0000 C   0  0  0  0  0  0  0  0  0  0  0  0
    6.1759   -7.0451    0.0000 C   0  0  0  0  0  0  0  0  0  0  0  0
    5.3786   -6.8347    0.0000 O   0  0  0  0  0  0  0  0  0  0  0  0
  1  2  2  0
  2  3  1  0
  3  4  2  0
  4  5  1  0
  5  6  2  0
  6  1  1  0
  7  8  1  0
  8  9  1  0
  9 10  1  0
 10  7  1  0
  7  5  1  1
M  END

> <chembl_id>
CHEMBL4747115

> <chembl_pref_name>
None

$$$$

     RDKit          2D

  9  9  0  0  0  0  0  0  0  0999 V2000
    9.4793   -5.9226    0.0000 N   0  0  0  0  0  0  0  0  0  0  0  0
    9.8879   -6.6358    0.0000 N   0  0  0  0  0  0  0  0  0  0  0  0
    8.6580   -5.9226    0.0000 C   0  0  0  0  0  0  0  0  0  0  0  0
    8.2494   -6.6358    0.0000 C   0  0  0  0  0  0  0  0  0  0  0  0
    7.4280   -6.6358    0.0000 C   0  0  0  0  0  0  0  0  0  0  0  0
    7.0194   -5.9226    0.0000 C   0  0  0  0  0  0  0  0  0  0  0  0
    7.4280   -5.2135    0.0000 C   0  0  0  0  0  0  0  0  0  0  0  0
    8.2494   -5.2135    0.0000 C   0  0  0  0  0  0  0  0  0  0  0  0
    6.1981   -5.9226    0.0000 C   0  0  0  0  0  0  0  0  0  0  0  0
  1  2  1  0
  3  4  1  0
  4  5  2  0
  5  6  1  0
  6  7  2  0
  7  8  1  0
  3  8  2  0
  6  9  1  0
  1  3  1  0
M  END

> <chembl_id>
CHEMBL3884912

> <chembl_pref_name>
None

$$$$

     RDKit          2D

 11 12  0  0  0  0  0  0  0  0999 V2000
   11.1055   -5.6612    0.0000 C   0  0  0  0  0  0  0  0  0  0  0  0
   11.1055   -6.4786    0.0000 C   0  0  0  0  0  0  0  0  0  0  0  0
   11.8126   -6.8866    0.0000 C   0  0  0  0  0  0  0  0  0  0  0  0
   12.5196   -6.4786    0.0000 C   0  0  0  0  0  0  0  0  0  0  0  0
   12.5196   -5.6612    0.0000 N   0  0  0  0  0  0  0  0  0  0  0  0
   11.8126   -5.2519    0.0000 C   0  0  0  0  0  0  0  0  0  0  0  0
   10.3943   -6.8866    0.0000 C   0  0  0  0  0  0  0  0  0  0  0  0
    9.6460   -6.5544    0.0000 O   0  0  0  0  0  0  0  0  0  0  0  0
    9.0988   -7.1636    0.0000 C   0  0  0  0  0  0  0  0  0  0  0  0
    9.5123   -7.8706    0.0000 C   0  0  0  0  0  0  0  0  0  0  0  0
   10.3103   -7.6983    0.0000 N   0  0  0  0  0  0  0  0  0  0  0  0
  1  2  2  0
  2  3  1  0
  3  4  2  0
  4  5  1  0
  5  6  2  0
  1  6  1  0
  2  7  1  0
  7  8  1  0
  8  9  1  0
  9 10  1  0
 10 11  1  0
  7 11  2  0
M  END

> <chembl_id>
CHEMBL4087800

> <chembl_pref_name>
None

$$$$

     RDKit          2D

 10 10  0  0  0  0  0  0  0  0999 V2000
    3.5926  -24.8460    0.0000 C   0  0  0  0  0  0  0  0  0  0  0  0
    3.5914  -25.6730    0.0000 C   0  0  0  0  0  0  0  0  0  0  0  0
    4.3060  -26.0856    0.0000 C   0  0  0  0  0  0  0  0  0  0  0  0
    5.0220  -25.6725    0.0000 C   0  0  0  0  0  0  0  0  0  0  0  0
    5.0191  -24.8424    0.0000 C   0  0  0  0  0  0  0  0  0  0  0  0
    4.3042  -24.4334    0.0000 C   0  0  0  0  0  0  0  0  0  0  0  0
    5.7318  -24.4274    0.0000 C   0  0  0  0  0  0  0  0  0  0  0  0
    6.4426  -24.0089    0.0000 C   0  0  0  0  0  0  0  0  0  0  0  0
    2.8784  -24.4339    0.0000 C   0  0  0  0  0  0  0  0  0  0  0  0
    2.1614  -24.0214    0.0000 C   0  0  0  0  0  0  0  0  0  0  0  0
  2  3  1  0
  5  6  2  0
  6  1  1  0
  1  2  2  0
  5  7  1  0
  3  4  2  0
  7  8  3  0
  1  9  1  0
  4  5  1  0
  9 10  3  0
M  END

> <chembl_id>
CHEMBL449036

> <chembl_pref_name>
None

$$$$

     RDKit          2D

  8  8  0  0  0  0  0  0  0  0999 V2000
    0.0945    0.3610    0.0000 C   0  0  0  0  0  0  0  0  0  0  0  0
    0.0945    1.1860    0.0000 N   0  0  0  0  0  0  0  0  0  0  0  0
   -0.6200    1.5985    0.0000 O   0  0  0  0  0  0  0  0  0  0  0  0
    0.8089   -0.0515    0.0000 C   0  0  0  0  0  0  0  0  0  0  0  0
    0.8089   -0.8765    0.0000 C   0  0  0  0  0  0  0  0  0  0  0  0
    0.0945   -1.2890    0.0000 C   0  0  0  0  0  0  0  0  0  0  0  0
   -0.6200   -0.8765    0.0000 C   0  0  0  0  0  0  0  0  0  0  0  0
   -0.6200   -0.0515    0.0000 C   0  0  0  0  0  0  0  0  0  0  0  0
  1  2  1  0
  1  4  2  0
  1  8  1  0
  2  3  2  0
  4  5  1  0
  5  6  2  0
  6  7  1  0
  7  8  2  0
M  END

> <chembl_id>
CHEMBL98797

> <chembl_pref_name>
NITROSOBENZENE

$$$$

     RDKit          2D

 11 11  0  0  0  0  0  0  0  0999 V2000
   30.1975   -7.9531    0.0000 C   0  0  0  0  0  0  0  0  0  0  0  0
   30.1964   -8.7727    0.0000 C   0  0  0  0  0  0  0  0  0  0  0  0
   30.9044   -9.1816    0.0000 C   0  0  0  0  0  0  0  0  0  0  0  0
   31.6141   -8.7722    0.0000 C   0  0  0  0  0  0  0  0  0  0  0  0
   31.6112   -7.9495    0.0000 C   0  0  0  0  0  0  0  0  0  0  0  0
   30.9026   -7.5443    0.0000 C   0  0  0  0  0  0  0  0  0  0  0  0
   32.3174   -7.5383    0.0000 C   0  0  0  0  0  0  0  0  0  0  0  0
   33.0267   -7.9442    0.0000 C   0  0  0  0  0  0  0  0  0  0  0  0
   33.0297   -8.7614    0.0000 N   0  0  0  0  0  0  0  0  0  0  0  0
   33.7406   -9.1725    0.0000 O   0  0  0  0  0  0  0  0  0  0  0  0
   32.3252   -9.1779    0.0000 O   0  0  0  0  0  0  0  0  0  0  0  0
  1  2  2  0
  2  3  1  0
  3  4  2  0
  4  5  1  0
  5  6  2  0
  6  1  1  0
  5  7  1  0
  7  8  2  0
  8  9  1  0
  9 10  2  0
  9 11  1  0
M  CHG  2   9   1  11  -1
M  END

> <chembl_id>
CHEMBL4282353

> <chembl_pref_name>
None

$$$$

     RDKit          2D

  9  9  0  0  0  0  0  0  0  0999 V2000
   16.4264  -16.3534    0.0000 N   0  0  0  0  0  0  0  0  0  0  0  0
   16.4264  -17.1784    0.0000 C   0  0  0  0  0  0  0  0  0  0  0  0
   17.1369  -17.5886    0.0000 N   0  0  0  0  0  0  0  0  0  0  0  0
   17.8519  -17.1784    0.0000 C   0  0  0  0  0  0  0  0  0  0  0  0
   17.8519  -16.3534    0.0000 C   0  0  0  0  0  0  0  0  0  0  0  0
   17.1369  -15.9386    0.0000 C   0  0  0  0  0  0  0  0  0  0  0  0
   15.7158  -17.5886    0.0000 O   0  0  0  0  0  0  0  0  0  0  0  0
   17.1357  -15.1182    0.0000 S   0  0  0  0  0  0  0  0  0  0  0  0
   17.8456  -14.7070    0.0000 C   0  0  0  0  0  0  0  0  0  0  0  0
  2  3  1  0
  3  4  1  0
  4  5  2  0
  5  6  1  0
  2  7  2  0
  1  2  1  0
  6  8  1  0
  1  6  2  0
  8  9  1  0
M  END

> <chembl_id>
CHEMBL472603

> <chembl_pref_name>
None

$$$$

     RDKit          2D

  9  9  0  0  0  0  0  0  0  0999 V2000
    1.4289   -0.8232    0.0000 N   0  0  0  0  0  0  0  0  0  0  0  0
    0.7145   -0.4107    0.0000 C   0  0  0  0  0  0  0  0  0  0  0  0
   -0.0000   -0.8232    0.0000 C   0  0  0  0  0  0  0  0  0  0  0  0
    0.7145    0.4143    0.0000 N   0  0  0  0  0  0  0  0  0  0  0  0
   -0.0000    0.8268    0.0000 C   0  0  0  0  0  0  0  0  0  0  0  0
   -0.0000    1.6518    0.0000 N   0  0  0  0  0  0  0  0  0  0  0  0
   -0.7145    0.4143    0.0000 N   0  0  0  0  0  0  0  0  0  0  0  0
   -0.7145   -0.4107    0.0000 C   0  0  0  0  0  0  0  0  0  0  0  0
   -1.4289   -0.8232    0.0000 N   0  0  0  0  0  0  0  0  0  0  0  0
  2  1  1  0
  3  2  2  0
  2  4  1  0
  8  3  1  0
  5  4  2  0
  5  6  1  0
  5  7  1  0
  8  7  2  0
  8  9  1  0
M  END

> <chembl_id>
CHEMBL571518

> <chembl_pref_name>
None

$$$$
 
     RDKit          2D

 10 10  0  0  0  0  0  0  0  0999 V2000
   15.6665  -19.9206    0.0000 C   0  0  0  0  0  0  0  0  0  0  0  0
   15.6665  -20.7456    0.0000 C   0  0  0  0  0  0  0  0  0  0  0  0
   16.3786  -21.1539    0.0000 O   0  0  0  0  0  0  0  0  0  0  0  0
   17.0905  -20.7456    0.0000 C   0  0  0  0  0  0  0  0  0  0  0  0
   17.0905  -19.9206    0.0000 C   0  0  0  0  0  0  0  0  0  0  0  0
   16.3786  -19.5040    0.0000 C   0  0  0  0  0  0  0  0  0  0  0  0
   16.3786  -18.6790    0.0000 C   0  0  0  0  0  0  0  0  0  0  0  0
   17.0930  -18.2665    0.0000 O   0  0  0  0  0  0  0  0  0  0  0  0
   17.8044  -21.1592    0.0000 O   0  0  0  0  0  0  0  0  0  0  0  0
   14.9509  -19.5103    0.0000 O   0  0  0  0  0  0  0  0  0  0  0  0
  1  2  2  0
  1  6  1  0
  2  3  1  0
  3  4  1  0
  4  5  1  0
  5  6  2  0
  6  7  1  0
  7  8  1  0
  4  9  2  0
  1 10  1  0
M  END

> <chembl_id>
CHEMBL4525476

> <chembl_pref_name>
None

$$$$

     RDKit          2D

 10 10  0  0  0  0  0  0  0  0999 V2000
    0.6044   -1.5072    0.0000 C   0  0  0  0  0  0  0  0  0  0  0  0
    0.6024   -0.5072    0.0000 C   0  0  0  0  0  0  0  0  0  0  0  0
    1.4674   -0.0054    0.0000 N   0  0  0  0  0  0  0  0  0  0  0  0
    1.4654    0.9946    0.0000 C   0  0  0  0  0  0  0  0  0  0  0  0
    2.3304    1.4962    0.0000 N   0  0  0  0  0  0  0  0  0  0  0  0
    0.5984    1.4928    0.0000 C   0  0  0  0  0  0  0  0  0  0  0  0
    0.5964    2.4928    0.0000 C   0  0  0  0  0  0  0  0  0  0  0  0
   -0.2666    0.9910    0.0000 C   0  0  0  0  0  0  0  0  0  0  0  0
   -1.1336    1.4894    0.0000 C   0  0  0  0  0  0  0  0  0  0  0  0
   -0.2646   -0.0090    0.0000 N   0  0  0  0  0  0  0  0  0  0  0  0
  1  2  1  0
  2  3  2  0
  3  4  1  0
  4  5  2  0
  4  6  1  0
  6  7  1  0
  6  8  2  0
  8  9  1  0
  8 10  1  0
 10  2  1  0
M  END

> <chembl_id>
CHEMBL4562375

> <chembl_pref_name>
None

$$$$

     RDKit          2D

  6  6  0  0  0  0  0  0  0  0999 V2000
    2.7417   -2.0625    0.0000 N   0  0  0  0  0  0  0  0  0  0  0  0
    2.0250   -3.2917    0.0000 N   0  0  0  0  0  0  0  0  0  0  0  0
    3.4542   -3.2917    0.0000 N   0  0  0  0  0  0  0  0  0  0  0  0
    2.7375   -3.7042    0.0000 C   0  0  0  0  0  0  0  0  0  0  0  0
    2.0250   -2.4667    0.0000 C   0  0  0  0  0  0  0  0  0  0  0  0
    3.4542   -2.4667    0.0000 C   0  0  0  0  0  0  0  0  0  0  0  0
  2  5  2  0
  3  6  1  0
  4  3  2  0
  5  1  1  0
  6  1  2  0
  2  4  1  0
M  END

> <chembl_id>
CHEMBL15698

> <chembl_pref_name>
None

$$$$

     RDKit          2D

 11 11  0  0  0  0  0  0  0  0999 V2000
    4.9292   -5.8600    0.0000 C   0  0  0  0  0  0  0  0  0  0  0  0
    3.8912   -5.2578    0.0000 C   0  0  0  0  0  0  0  0  0  0  0  0
    3.8933   -3.7570    0.0000 C   0  0  0  0  0  0  0  0  0  0  0  0
    2.5951   -3.0039    0.0000 O   0  0  0  0  0  0  0  0  0  0  0  0
    2.5973   -1.5031    0.0000 C   0  0  0  0  0  0  0  0  0  0  0  0
    1.2990   -0.7500    0.0000 C   0  0  0  0  0  0  0  0  0  0  0  0
    1.2990    0.7500    0.0000 C   0  0  0  0  0  0  0  0  0  0  0  0
    0.0000    1.5000    0.0000 C   0  0  0  0  0  0  0  0  0  0  0  0
   -1.2990    0.7500    0.0000 C   0  0  0  0  0  0  0  0  0  0  0  0
   -1.2990   -0.7500    0.0000 C   0  0  0  0  0  0  0  0  0  0  0  0
    0.0000   -1.5000    0.0000 C   0  0  0  0  0  0  0  0  0  0  0  0
  1  2  2  0
  2  3  1  0
  3  4  1  0
  4  5  1  0
  5  6  1  0
  6  7  2  0
  7  8  1  0
  8  9  2  0
  9 10  1  0
 10 11  2  0
 11  6  1  0
M  END

> <chembl_id>
CHEMBL3905781

> <chembl_pref_name>
None

$$$$

     RDKit          2D

  7  7  0  0  0  0  0  0  0  0999 V2000
    2.8979   -3.1071    0.0000 N   0  0  0  0  0  0  0  0  0  0  0  0
    3.6040   -2.6958    0.0000 C   0  0  0  0  0  0  0  0  0  0  0  0
    4.3493   -3.0283    0.0000 N   0  0  0  0  0  0  0  0  0  0  0  0
    4.8938   -2.4190    0.0000 N   0  0  0  0  0  0  0  0  0  0  0  0
    4.4825   -1.7128    0.0000 C   0  0  0  0  0  0  0  0  0  0  0  0
    3.6839   -1.8858    0.0000 C   0  0  0  0  0  0  0  0  0  0  0  0
    5.7069   -2.5013    0.0000 C   0  0  0  0  0  0  0  0  0  0  0  0
  1  2  1  0
  2  3  2  0
  3  4  1  0
  4  5  1  0
  5  6  2  0
  6  2  1  0
  4  7  1  0
M  END

> <chembl_id>
CHEMBL3219111

> <chembl_pref_name>
None

$$$$

     RDKit          2D

  9  9  0  0  0  0  0  0  0  0999 V2000
    0.8263    0.0000    0.0000 N   0  0  0  0  0  0  0  0  0  0  0  0
    0.0000    0.0000    0.0000 N   0  0  0  0  0  0  0  0  0  0  0  0
    2.0567   -0.7115    0.0000 C   0  0  0  0  0  0  0  0  0  0  0  0
    2.4680    0.0000    0.0000 C   0  0  0  0  0  0  0  0  0  0  0  0
    2.4680   -1.4267    0.0000 C   0  0  0  0  0  0  0  0  0  0  0  0
    1.2377   -0.7115    0.0000 C   0  0  0  0  0  0  0  0  0  0  0  0
    3.2943    0.0000    0.0000 C   0  0  0  0  0  0  0  0  0  0  0  0
    3.2943   -1.4267    0.0000 C   0  0  0  0  0  0  0  0  0  0  0  0
    3.7057   -0.7115    0.0000 C   0  0  0  0  0  0  0  0  0  0  0  0
  1  2  1  0
  1  6  1  0
  3  4  2  0
  3  5  1  0
  3  6  1  0
  4  7  1  0
  5  8  2  0
  7  9  2  0
  8  9  1  0
M  END

> <chembl_id>
CHEMBL1231544

> <chembl_pref_name>
BENZYLHYDRAZINE

$$$$

     RDKit          2D

  9  9  0  0  0  0  0  0  0  0999 V2000
   -4.0209  -11.9875    0.0000 N   0  0  0  0  0  0  0  0  0  0  0  0
   -3.1959  -11.9875    0.0000 N   0  0  0  0  0  0  0  0  0  0  0  0
   -2.9391  -11.2034    0.0000 N   0  0  0  0  0  0  0  0  0  0  0  0
   -4.2734  -11.2034    0.0000 C   0  0  0  0  0  0  0  0  0  0  0  0
   -5.0581  -10.9488    0.0000 C   0  0  0  0  0  0  0  0  0  0  0  0
   -2.1541  -10.9496    0.0000 C   0  0  0  0  0  0  0  0  0  0  0  0
   -2.7117  -12.6555    0.0000 C   0  0  0  0  0  0  0  0  0  0  0  0
   -3.6096   -9.8917    0.0000 S   0  0  0  0  0  0  0  0  0  0  0  0
   -3.6167  -10.7167    0.0000 C   0  0  0  0  0  0  0  0  0  0  0  0
  4  1  2  0
  4  5  1  0
  1  2  1  0
  3  6  1  0
  2  3  1  0
  2  7  1  0
  3  9  1  0
  9  4  1  0
  8  9  2  0
M  END

> <chembl_id>
CHEMBL2071149

> <chembl_pref_name>
None

$$$$

     RDKit          2D

 10 10  0  0  0  0  0  0  0  0999 V2000
    9.8444   -7.2641    0.0000 C   0  0  0  0  0  0  0  0  0  0  0  0
   10.5496   -7.6794    0.0000 C   0  0  0  0  0  0  0  0  0  0  0  0
   10.5419   -8.4965    0.0000 C   0  0  0  0  0  0  0  0  0  0  0  0
    9.8331   -8.8985    0.0000 C   0  0  0  0  0  0  0  0  0  0  0  0
    9.1279   -8.4873    0.0000 C   0  0  0  0  0  0  0  0  0  0  0  0
    9.1315   -7.6702    0.0000 C   0  0  0  0  0  0  0  0  0  0  0  0
    9.8479   -6.4470    0.0000 O   0  0  0  0  0  0  0  0  0  0  0  0
    9.8296   -9.7156    0.0000 C   0  0  0  0  0  0  0  0  0  0  0  0
    9.1167  -10.1217    0.0000 O   0  0  0  0  0  0  0  0  0  0  0  0
    9.1131  -10.9388    0.0000 C   0  0  0  0  0  0  0  0  0  0  0  0
  1  2  1  0
  2  3  2  0
  3  4  1  0
  4  5  2  0
  5  6  1  0
  1  6  2  0
  1  7  1  0
  9 10  1  0
  8  9  1  0
  4  8  1  0
M  END

> <chembl_id>
CHEMBL3929528

> <chembl_pref_name>
None

$$$$

     RDKit          2D

 10 10  0  0  0  0  0  0  0  0999 V2000
    3.1518    0.3692    0.0000 C   0  0  0  0  0  0  0  0  0  0  0  0
    2.2890   -0.1362    0.0000 N   0  0  0  0  0  0  0  0  0  0  0  0
    1.4198    0.3582    0.0000 C   0  0  0  0  0  0  0  0  0  0  0  0
    1.4134    1.3582    0.0000 C   0  0  0  0  0  0  0  0  0  0  0  0
    0.5442    1.8526    0.0000 N   0  0  0  0  0  0  0  0  0  0  0  0
   -0.3186    1.3470    0.0000 C   0  0  0  0  0  0  0  0  0  0  0  0
   -1.1878    1.8414    0.0000 C   0  0  0  0  0  0  0  0  0  0  0  0
   -2.0570    2.3358    0.0000 N   0  0  0  0  0  0  0  0  0  0  0  0
   -0.3122    0.3470    0.0000 C   0  0  0  0  0  0  0  0  0  0  0  0
    0.5570   -0.1474    0.0000 N   0  0  0  0  0  0  0  0  0  0  0  0
  1  2  1  0
  2  3  1  0
  3  4  2  0
  4  5  1  0
  5  6  2  0
  6  7  1  0
  7  8  3  0
  6  9  1  0
  9 10  2  0
 10  3  1  0
M  END

> <chembl_id>
CHEMBL4566267

> <chembl_pref_name>
None

$$$$

     RDKit          2D

 11 11  0  0  0  0  0  0  0  0999 V2000
    0.9002    2.4032    0.0000 C   0  0  0  0  0  0  0  0  0  0  0  0
    0.0332    1.9050    0.0000 C   0  0  0  0  0  0  0  0  0  0  0  0
   -0.8318    2.4068    0.0000 O   0  0  0  0  0  0  0  0  0  0  0  0
    0.0312    0.9050    0.0000 C   0  0  0  0  0  0  0  0  0  0  0  0
    0.8962    0.4034    0.0000 C   0  0  0  0  0  0  0  0  0  0  0  0
    0.8942   -0.5966    0.0000 C   0  0  0  0  0  0  0  0  0  0  0  0
    0.0272   -1.0950    0.0000 C   0  0  0  0  0  0  0  0  0  0  0  0
   -0.8378   -0.5932    0.0000 C   0  0  0  0  0  0  0  0  0  0  0  0
   -1.7048   -1.0914    0.0000 C   0  0  0  0  0  0  0  0  0  0  0  0
   -2.5718   -1.5898    0.0000 N   0  0  0  0  0  0  0  0  0  0  0  0
   -0.8358    0.4068    0.0000 C   0  0  0  0  0  0  0  0  0  0  0  0
  1  2  1  0
  2  3  2  0
  2  4  1  0
  4  5  2  0
  5  6  1  0
  6  7  2  0
  7  8  1  0
  8  9  1  0
  9 10  3  0
  8 11  2  0
 11  4  1  0
M  END

> <chembl_id>
CHEMBL4544662

> <chembl_pref_name>
None

$$$$

     RDKit          2D

 10 10  0  0  0  0  0  0  0  0999 V2000
    4.9292   -6.0292    0.0000 N   0  0  0  0  0  0  0  0  0  0  0  0
    4.9292   -4.3792    0.0000 N   0  0  0  0  0  0  0  0  0  0  0  0
    5.6417   -5.6167    0.0000 C   0  0  0  0  0  0  0  0  0  0  0  0
    5.6417   -4.7917    0.0000 C   0  0  0  0  0  0  0  0  0  0  0  0
    4.2167   -5.6167    0.0000 C   0  0  0  0  0  0  0  0  0  0  0  0
    4.2167   -4.7917    0.0000 C   0  0  0  0  0  0  0  0  0  0  0  0
    6.3542   -6.0292    0.0000 C   0  0  0  0  0  0  0  0  0  0  0  0
    6.3542   -4.3792    0.0000 C   0  0  0  0  0  0  0  0  0  0  0  0
    3.5042   -6.0292    0.0000 C   0  0  0  0  0  0  0  0  0  0  0  0
    7.0667   -5.6167    0.0000 C   0  0  0  0  0  0  0  0  0  0  0  0
  2  6  1  0
  3  1  2  0
  4  3  1  0
  5  1  1  0
  6  5  2  0
  7  3  1  0
  8  4  1  0
  9  5  1  0
 10  7  1  0
  4  2  2  0
M  END

> <chembl_id>
CHEMBL95123

> <chembl_pref_name>
None

$$$$
 
     RDKit          2D

  6  6  0  0  0  0  0  0  0  0999 V2000
    5.9399   -5.8482    0.0000 C   0  0  0  0  0  0  0  0  0  0  0  0
    6.7658   -5.8482    0.0000 S   0  0  0  0  0  0  0  0  0  0  0  0
    7.0230   -5.0632    0.0000 C   0  0  0  0  0  0  0  0  0  0  0  0
    6.3529   -4.5760    0.0000 C   0  0  0  0  0  0  0  0  0  0  0  0
    5.6871   -5.0632    0.0000 C   0  0  0  0  0  0  0  0  0  0  0  0
    5.4536   -6.5158    0.0000 N   0  0  0  0  0  0  0  0  0  0  0  0
  1  2  1  0
  2  3  1  0
  3  4  2  0
  4  5  1  0
  5  1  2  0
  1  6  1  0
M  END

> <chembl_id>
CHEMBL4793820

> <chembl_pref_name>
None

$$$$

     RDKit          2D

  9  9  0  0  0  0  0  0  0  0999 V2000
    2.4050   -0.2540    0.0000 C   0  0  0  0  0  0  0  0  0  0  0  0
    1.5422    0.2514    0.0000 C   0  0  0  0  0  0  0  0  0  0  0  0
    1.5486    1.2514    0.0000 C   0  0  0  0  0  0  0  0  0  0  0  0
    0.6858    1.7570    0.0000 C   0  0  0  0  0  0  0  0  0  0  0  0
   -0.1834    1.2626    0.0000 N   0  0  0  0  0  0  0  0  0  0  0  0
   -0.1898    0.2626    0.0000 C   0  0  0  0  0  0  0  0  0  0  0  0
   -1.0590   -0.2318    0.0000 C   0  0  0  0  0  0  0  0  0  0  0  0
   -1.9218    0.2738    0.0000 N   0  0  0  0  0  0  0  0  0  0  0  0
    0.6730   -0.2430    0.0000 N   0  0  0  0  0  0  0  0  0  0  0  0
  1  2  1  0
  2  3  2  0
  3  4  1  0
  4  5  2  0
  5  6  1  0
  6  7  1  0
  7  8  1  0
  6  9  2  0
  9  2  1  0
M  END

> <chembl_id>
CHEMBL4520171

> <chembl_pref_name>
None

$$$$

     RDKit          2D

 10 10  0  0  0  0  0  0  0  0999 V2000
    0.0000   -1.4101    0.0000 O   0  0  0  0  0  0  0  0  0  0  0  0
    0.0111    0.0000    0.0000 O   0  0  0  0  0  0  0  0  0  0  0  0
    3.7011   -0.7291    0.0000 O   0  0  0  0  0  0  0  0  0  0  0  0
    0.4219   -0.7291    0.0000 N   0  0  0  0  0  0  0  0  0  0  0  0
    2.8795   -0.7291    0.0000 N   0  0  0  0  0  0  0  0  0  0  0  0
    1.2399   -0.7291    0.0000 C   0  0  0  0  0  0  0  0  0  0  0  0
    1.6396   -1.4508    0.0000 C   0  0  0  0  0  0  0  0  0  0  0  0
    1.6507   -0.0222    0.0000 C   0  0  0  0  0  0  0  0  0  0  0  0
    2.4723   -1.4397    0.0000 C   0  0  0  0  0  0  0  0  0  0  0  0
    2.4798    0.0000    0.0000 C   0  0  0  0  0  0  0  0  0  0  0  0
  1  4  1  0
  2  4  2  0
  3  5  1  0
  4  6  1  0
  5  9  2  0
  5 10  1  0
  6  7  2  0
  6  8  1  0
  7  9  1  0
  8 10  2  0
M  CHG  4   1  -1   3  -1   4   1   5   1
M  END

> <chembl_id>
CHEMBL3187617

> <chembl_pref_name>
None

$$$$

     RDKit          2D

 10 10  0  0  0  0  0  0  0  0999 V2000
    0.7462    0.6932    0.0000 C   0  0  0  0  0  0  0  0  0  0  0  0
   -0.1208    0.1948    0.0000 C   0  0  0  0  0  0  0  0  0  0  0  0
   -0.1230   -0.8052    0.0000 C   0  0  0  0  0  0  0  0  0  0  0  0
   -0.9900   -1.3034    0.0000 C   0  0  0  0  0  0  0  0  0  0  0  0
   -1.8550   -0.8016    0.0000 C   0  0  0  0  0  0  0  0  0  0  0  0
   -1.8530    0.1984    0.0000 C   0  0  0  0  0  0  0  0  0  0  0  0
   -2.7180    0.7000    0.0000 C   0  0  0  0  0  0  0  0  0  0  0  0
   -0.9858    0.6966    0.0000 C   0  0  0  0  0  0  0  0  0  0  0  0
   -0.9838    1.6966    0.0000 C   0  0  0  0  0  0  0  0  0  0  0  0
   -0.1168    2.1948    0.0000 N   0  0  0  0  0  0  0  0  0  0  0  0
  1  2  1  0
  2  3  2  0
  3  4  1  0
  4  5  2  0
  5  6  1  0
  6  7  1  0
  6  8  2  0
  8  9  1  0
  9 10  1  0
  8  2  1  0
M  END

> <chembl_id>
CHEMBL4529599

> <chembl_pref_name>
None

$$$$

     RDKit          2D

 11 11  0  0  0  0  0  0  0  0999 V2000
    0.4098    2.0462    0.0000 C   0  0  0  0  0  0  0  0  0  0  0  0
    0.4106    1.0462    0.0000 C   0  0  0  0  0  0  0  0  0  0  0  0
   -0.4550    0.5454    0.0000 C   0  0  0  0  0  0  0  0  0  0  0  0
   -1.3214    1.0448    0.0000 C   0  0  0  0  0  0  0  0  0  0  0  0
   -2.1870    0.5440    0.0000 C   0  0  0  0  0  0  0  0  0  0  0  0
   -2.1862   -0.4560    0.0000 C   0  0  0  0  0  0  0  0  0  0  0  0
   -1.3198   -0.9552    0.0000 N   0  0  0  0  0  0  0  0  0  0  0  0
   -0.4542   -0.4546    0.0000 C   0  0  0  0  0  0  0  0  0  0  0  0
    0.4122   -0.9538    0.0000 C   0  0  0  0  0  0  0  0  0  0  0  0
    0.4130   -1.9538    0.0000 C   0  0  0  0  0  0  0  0  0  0  0  0
    1.2778   -0.4532    0.0000 O   0  0  0  0  0  0  0  0  0  0  0  0
  1  2  1  0
  2  3  1  0
  3  4  2  0
  4  5  1  0
  5  6  2  0
  6  7  1  0
  7  8  2  0
  8  9  1  0
  9 10  1  0
  9 11  2  0
  8  3  1  0
M  END

> <chembl_id>
CHEMBL4579702

> <chembl_pref_name>
None

$$$$

     RDKit          2D

 10 10  0  0  0  0  0  0  0  0999 V2000
   -2.7220   -0.6354    0.0000 C   0  0  0  0  0  0  0  0  0  0  0  0
   -1.8578   -0.1324    0.0000 C   0  0  0  0  0  0  0  0  0  0  0  0
   -1.8614    0.8676    0.0000 N   0  0  0  0  0  0  0  0  0  0  0  0
   -0.9900   -0.6292    0.0000 C   0  0  0  0  0  0  0  0  0  0  0  0
   -0.1258   -0.1262    0.0000 C   0  0  0  0  0  0  0  0  0  0  0  0
    0.7420   -0.6230    0.0000 C   0  0  0  0  0  0  0  0  0  0  0  0
    1.6064   -0.1200    0.0000 C   0  0  0  0  0  0  0  0  0  0  0  0
    1.6026    0.8800    0.0000 C   0  0  0  0  0  0  0  0  0  0  0  0
    0.7348    1.3768    0.0000 N   0  0  0  0  0  0  0  0  0  0  0  0
   -0.1294    0.8738    0.0000 C   0  0  0  0  0  0  0  0  0  0  0  0
  1  2  1  0
  2  3  1  0
  2  4  1  0
  4  5  1  0
  5  6  2  0
  6  7  1  0
  7  8  2  0
  8  9  1  0
  9 10  2  0
 10  5  1  0
M  END

> <chembl_id>
CHEMBL4533731

> <chembl_pref_name>
None

$$$$

     RDKit          2D

 10 11  0  0  0  0  0  0  0  0999 V2000
   -1.2316    0.5014    0.0000 C   0  0  0  0  0  0  0  0  0  0  0  0
   -1.2324   -0.4986    0.0000 C   0  0  0  0  0  0  0  0  0  0  0  0
   -0.3668   -0.9994    0.0000 N   0  0  0  0  0  0  0  0  0  0  0  0
    0.4996   -0.5000    0.0000 C   0  0  0  0  0  0  0  0  0  0  0  0
    0.5004    0.5000    0.0000 C   0  0  0  0  0  0  0  0  0  0  0  0
   -0.3652    1.0006    0.0000 C   0  0  0  0  0  0  0  0  0  0  0  0
    1.3668    0.9994    0.0000 C   0  0  0  0  0  0  0  0  0  0  0  0
    2.2324    0.4986    0.0000 C   0  0  0  0  0  0  0  0  0  0  0  0
    2.2316   -0.5014    0.0000 C   0  0  0  0  0  0  0  0  0  0  0  0
    1.3652   -1.0006    0.0000 N   0  0  0  0  0  0  0  0  0  0  0  0
  1  2  2  0
  2  3  1  0
  3  4  2  0
  4  5  1  0
  5  6  2  0
  5  7  1  0
  7  8  1  0
  8  9  1  0
  9 10  1  0
  6  1  1  0
 10  4  1  0
M  END

> <chembl_id>
CHEMBL4553176

> <chembl_pref_name>
None

$$$$
 
     RDKit          2D

 10 10  0  0  0  0  0  0  0  0999 V2000
   13.4795   -2.6992    0.0000 C   0  0  0  0  0  0  0  0  0  0  0  0
   14.1872   -2.2906    0.0000 C   0  0  0  0  0  0  0  0  0  0  0  0
   14.8949   -2.6992    0.0000 N   0  0  0  0  0  0  0  0  0  0  0  0
   15.6027   -2.2906    0.0000 C   0  0  0  0  0  0  0  0  0  0  0  0
   16.3104   -2.6992    0.0000 C   0  0  0  0  0  0  0  0  0  0  0  0
   14.1872   -1.4734    0.0000 O   0  0  0  0  0  0  0  0  0  0  0  0
   12.7330   -2.3668    0.0000 C   0  0  0  0  0  0  0  0  0  0  0  0
   12.1862   -2.9741    0.0000 N   0  0  0  0  0  0  0  0  0  0  0  0
   12.5948   -3.6819    0.0000 N   0  0  0  0  0  0  0  0  0  0  0  0
   13.3941   -3.5119    0.0000 C   0  0  0  0  0  0  0  0  0  0  0  0
  1  2  1  0
  2  3  1  0
  3  4  1  0
  4  5  1  0
  2  6  2  0
  1  7  2  0
  7  8  1  0
  8  9  1  0
  9 10  2  0
 10  1  1  0
M  END

> <chembl_id>
CHEMBL4532147

> <chembl_pref_name>
None

$$$$

     RDKit          2D

  8  8  0  0  0  0  0  0  0  0999 V2000
   -2.6396   -0.5864    0.0000 C   0  0  0  0  0  0  0  0  0  0  0  0
   -1.7730   -0.0874    0.0000 N   0  0  0  0  0  0  0  0  0  0  0  0
   -0.9076   -0.5882    0.0000 C   0  0  0  0  0  0  0  0  0  0  0  0
   -0.0412   -0.0892    0.0000 C   0  0  0  0  0  0  0  0  0  0  0  0
    0.8720   -0.4970    0.0000 C   0  0  0  0  0  0  0  0  0  0  0  0
    1.5418    0.2454    0.0000 C   0  0  0  0  0  0  0  0  0  0  0  0
    1.0430    1.1120    0.0000 O   0  0  0  0  0  0  0  0  0  0  0  0
    0.0646    0.9050    0.0000 C   0  0  0  0  0  0  0  0  0  0  0  0
  1  2  1  0
  2  3  1  0
  3  4  1  0
  4  5  1  0
  5  6  2  0
  6  7  1  0
  7  8  1  0
  8  4  2  0
M  END

> <chembl_id>
CHEMBL4558396

> <chembl_pref_name>
None

$$$$

     RDKit          2D

 11 11  0  0  0  0  0  0  0  0999 V2000
    6.2385   -5.1020    0.0000 N   0  0  0  0  0  0  0  0  0  0  0  0
    5.1993   -4.5021    0.0000 C   0  0  0  0  0  0  0  0  0  0  0  0
    5.1983   -3.0012    0.0000 C   0  0  0  0  0  0  0  0  0  0  0  0
    3.8985   -2.2508    0.0000 C   0  0  0  0  0  0  0  0  0  0  0  0
    2.5988   -1.5004    0.0000 C   0  0  0  0  0  0  0  0  0  0  0  0
    1.2990   -0.7500    0.0000 C   0  0  0  0  0  0  0  0  0  0  0  0
    1.2990    0.7500    0.0000 C   0  0  0  0  0  0  0  0  0  0  0  0
    0.0000    1.5000    0.0000 C   0  0  0  0  0  0  0  0  0  0  0  0
   -1.2990    0.7500    0.0000 C   0  0  0  0  0  0  0  0  0  0  0  0
   -1.2990   -0.7500    0.0000 C   0  0  0  0  0  0  0  0  0  0  0  0
    0.0000   -1.5000    0.0000 C   0  0  0  0  0  0  0  0  0  0  0  0
  1  2  1  0
  2  3  1  0
  3  4  1  0
  4  5  3  0
  5  6  1  0
  6  7  2  0
  7  8  1  0
  8  9  2  0
  9 10  1  0
 10 11  2  0
 11  6  1  0
M  END

> <chembl_id>
CHEMBL3980616

> <chembl_pref_name>
None

$$$$

     RDKit          2D

 10 10  0  0  0  0  0  0  0  0999 V2000
    2.3383   -1.3500    0.0000 N   0  0  0  0  0  0  0  0  0  0  0  0
    1.2990   -0.7500    0.0000 C   0  0  0  0  0  0  0  0  0  0  0  0
    1.2990    0.7500    0.0000 C   0  0  0  0  0  0  0  0  0  0  0  0
    0.0000    1.5000    0.0000 N   0  0  0  0  0  0  0  0  0  0  0  0
   -1.2990    0.7500    0.0000 C   0  0  0  0  0  0  0  0  0  0  0  0
   -1.2990   -0.7500    0.0000 C   0  0  0  0  0  0  0  0  0  0  0  0
    0.0000   -1.5000    0.0000 C   0  0  0  0  0  0  0  0  0  0  0  0
   -2.6003    1.4977    0.0000 C   0  0  0  0  0  0  0  0  0  0  0  0
   -2.6024    2.6977    0.0000 O   0  0  0  0  0  0  0  0  0  0  0  0
   -3.6387    0.8962    0.0000 O   0  0  0  0  0  0  0  0  0  0  0  0
  1  2  1  0
  2  3  2  0
  3  4  1  0
  4  5  2  0
  5  6  1  0
  6  7  2  0
  2  7  1  0
  5  8  1  0
  8  9  1  0
  8 10  2  0
M  END

> <chembl_id>
CHEMBL3617318

> <chembl_pref_name>
None

$$$$

     RDKit          2D

 10 10  0  0  0  0  0  0  0  0999 V2000
    0.9764    1.2680    0.0000 C   0  0  0  0  0  0  0  0  0  0  0  0
    0.9752    0.2680    0.0000 C   0  0  0  0  0  0  0  0  0  0  0  0
    1.8406   -0.2330    0.0000 C   0  0  0  0  0  0  0  0  0  0  0  0
    0.1086   -0.2310    0.0000 N   0  0  0  0  0  0  0  0  0  0  0  0
   -0.8044    0.1768    0.0000 C   0  0  0  0  0  0  0  0  0  0  0  0
   -1.4744   -0.5656    0.0000 C   0  0  0  0  0  0  0  0  0  0  0  0
   -2.4688   -0.4600    0.0000 C   0  0  0  0  0  0  0  0  0  0  0  0
   -3.0576   -1.2684    0.0000 N   0  0  0  0  0  0  0  0  0  0  0  0
   -0.9754   -1.4322    0.0000 N   0  0  0  0  0  0  0  0  0  0  0  0
    0.0030   -1.2254    0.0000 N   0  0  0  0  0  0  0  0  0  0  0  0
  1  2  1  0
  2  3  1  0
  2  4  1  0
  4  5  1  0
  5  6  2  0
  6  7  1  0
  7  8  1  0
  6  9  1  0
  9 10  2  0
 10  4  1  0
M  END

> <chembl_id>
CHEMBL4587773

> <chembl_pref_name>
None

$$$$

     RDKit          2D

 10 10  0  0  0  0  0  0  0  0999 V2000
   -1.7772   -2.1090    0.0000 C   0  0  0  0  0  0  0  0  0  0  0  0
   -1.7764   -1.1090    0.0000 C   0  0  0  0  0  0  0  0  0  0  0  0
   -2.6420   -0.6082    0.0000 N   0  0  0  0  0  0  0  0  0  0  0  0
   -0.9100   -0.6096    0.0000 C   0  0  0  0  0  0  0  0  0  0  0  0
   -0.0444   -1.1102    0.0000 C   0  0  0  0  0  0  0  0  0  0  0  0
    0.8220   -0.6110    0.0000 C   0  0  0  0  0  0  0  0  0  0  0  0
    0.8228    0.3890    0.0000 N   0  0  0  0  0  0  0  0  0  0  0  0
   -0.0428    0.8898    0.0000 C   0  0  0  0  0  0  0  0  0  0  0  0
   -0.0420    1.8898    0.0000 O   0  0  0  0  0  0  0  0  0  0  0  0
   -0.9092    0.3904    0.0000 C   0  0  0  0  0  0  0  0  0  0  0  0
  1  2  1  0
  2  3  1  0
  2  4  1  0
  4  5  1  0
  5  6  2  0
  6  7  1  0
  7  8  1  0
  8  9  2  0
  8 10  1  0
 10  4  2  0
M  END

> <chembl_id>
CHEMBL4525490

> <chembl_pref_name>
None

$$$$

     RDKit          2D

 10 10  0  0  0  0  0  0  0  0999 V2000
    1.2990   -0.7500    0.0000 C   0  0  0  0  0  0  0  0  0  0  0  0
    1.2990    0.7500    0.0000 C   0  0  0  0  0  0  0  0  0  0  0  0
    0.0000    1.5000    0.0000 N   0  0  0  0  0  0  0  0  0  0  0  0
   -1.2990    0.7500    0.0000 C   0  0  0  0  0  0  0  0  0  0  0  0
   -1.2990   -0.7500    0.0000 C   0  0  0  0  0  0  0  0  0  0  0  0
    0.0000   -1.5000    0.0000 C   0  0  0  0  0  0  0  0  0  0  0  0
    0.0000   -2.7000    0.0000 O   0  0  0  0  0  0  0  0  0  0  0  0
   -2.3383   -1.3500    0.0000 O   0  0  0  0  0  0  0  0  0  0  0  0
    2.3383   -1.3500    0.0000 F   0  0  0  0  0  0  0  0  0  0  0  0
    0.0000    2.7000    0.0000 C   0  0  0  0  0  0  0  0  0  0  0  0
  1  2  2  0
  1  6  1  0
  2  3  1  0
  3  4  1  0
  4  5  2  0
  5  6  1  0
  6  7  2  0
  5  8  1  0
  1  9  1  0
  3 10  1  0
M  END

> <chembl_id>
CHEMBL3786953

> <chembl_pref_name>
None

$$$$

     RDKit          2D

 10 10  0  0  0  0  0  0  0  0999 V2000
   -4.5170   -0.2112    0.0000 N   0  0  0  0  0  0  0  0  0  0  0  0
   -3.6492   -0.7080    0.0000 C   0  0  0  0  0  0  0  0  0  0  0  0
   -2.7848   -0.2050    0.0000 C   0  0  0  0  0  0  0  0  0  0  0  0
   -1.9170   -0.7018    0.0000 C   0  0  0  0  0  0  0  0  0  0  0  0
   -1.0528   -0.1988    0.0000 C   0  0  0  0  0  0  0  0  0  0  0  0
   -1.0566    0.8012    0.0000 C   0  0  0  0  0  0  0  0  0  0  0  0
   -0.1922    1.3044    0.0000 C   0  0  0  0  0  0  0  0  0  0  0  0
    0.6756    0.8074    0.0000 C   0  0  0  0  0  0  0  0  0  0  0  0
    0.6792   -0.1926    0.0000 C   0  0  0  0  0  0  0  0  0  0  0  0
   -0.1850   -0.6956    0.0000 N   0  0  0  0  0  0  0  0  0  0  0  0
  1  2  1  0
  2  3  1  0
  3  4  1  0
  4  5  1  0
  5  6  2  0
  6  7  1  0
  7  8  2  0
  8  9  1  0
  9 10  2  0
 10  5  1  0
M  END

> <chembl_id>
CHEMBL4548322

> <chembl_pref_name>
None

$$$$

     RDKit          2D

  9  9  0  0  0  0  0  0  0  0999 V2000
    1.1218    1.7034    0.0000 C   0  0  0  0  0  0  0  0  0  0  0  0
    0.9166    0.7246    0.0000 C   0  0  0  0  0  0  0  0  0  0  0  0
    0.0042    0.3154    0.0000 C   0  0  0  0  0  0  0  0  0  0  0  0
   -0.8632    0.8130    0.0000 C   0  0  0  0  0  0  0  0  0  0  0  0
   -1.7278    0.3106    0.0000 N   0  0  0  0  0  0  0  0  0  0  0  0
    0.1114   -0.6788    0.0000 C   0  0  0  0  0  0  0  0  0  0  0  0
    1.0900   -0.8840    0.0000 N   0  0  0  0  0  0  0  0  0  0  0  0
    1.5876   -0.0166    0.0000 N   0  0  0  0  0  0  0  0  0  0  0  0
    2.5818    0.0906    0.0000 C   0  0  0  0  0  0  0  0  0  0  0  0
  1  2  1  0
  2  3  2  0
  3  4  1  0
  4  5  1  0
  3  6  1  0
  6  7  2  0
  7  8  1  0
  8  9  1  0
  8  2  1  0
M  END

> <chembl_id>
CHEMBL4575152

> <chembl_pref_name>
None

$$$$

     RDKit          2D

 10 10  0  0  0  0  0  0  0  0999 V2000
   -3.4780   -1.0764    0.0000 C   0  0  0  0  0  0  0  0  0  0  0  0
   -2.6138   -0.5730    0.0000 C   0  0  0  0  0  0  0  0  0  0  0  0
   -1.7458   -1.0694    0.0000 C   0  0  0  0  0  0  0  0  0  0  0  0
   -0.8818   -0.5660    0.0000 N   0  0  0  0  0  0  0  0  0  0  0  0
    0.0332   -0.9692    0.0000 C   0  0  0  0  0  0  0  0  0  0  0  0
    0.6996   -0.2234    0.0000 C   0  0  0  0  0  0  0  0  0  0  0  0
    1.6944   -0.3240    0.0000 C   0  0  0  0  0  0  0  0  0  0  0  0
    0.1960    0.6406    0.0000 C   0  0  0  0  0  0  0  0  0  0  0  0
    0.5992    1.5556    0.0000 N   0  0  0  0  0  0  0  0  0  0  0  0
   -0.7812    0.4290    0.0000 N   0  0  0  0  0  0  0  0  0  0  0  0
  1  2  1  0
  2  3  1  0
  3  4  1  0
  4  5  1  0
  5  6  2  0
  6  7  1  0
  6  8  1  0
  8  9  1  0
  8 10  2  0
 10  4  1  0
M  END

> <chembl_id>
CHEMBL4564423

> <chembl_pref_name>
None

$$$$

     RDKit          2D

  7  7  0  0  0  0  0  0  0  0999 V2000
    2.2948   -5.0418    0.0000 C   0  0  0  0  0  0  0  0  0  0  0  0
    2.9439   -5.5382    0.0000 S   0  0  0  0  0  0  0  0  0  0  0  0
    3.6178   -5.0759    0.0000 C   0  0  0  0  0  0  0  0  0  0  0  0
    3.3841   -4.2901    0.0000 C   0  0  0  0  0  0  0  0  0  0  0  0
    2.5680   -4.2729    0.0000 C   0  0  0  0  0  0  0  0  0  0  0  0
    4.3881   -5.3485    0.0000 C   0  0  0  0  0  0  0  0  0  0  0  0
    5.1574   -5.6212    0.0000 N   0  0  0  0  0  0  0  0  0  0  0  0
  1  2  1  0
  2  3  1  0
  3  4  2  0
  4  5  1  0
  5  1  2  0
  3  6  1  0
  6  7  3  0
M  END

> <chembl_id>
CHEMBL2229531

> <chembl_pref_name>
2-THIOPHENECARBONITRILE

$$$$

     RDKit          2D

 11 12  0  0  0  0  0  0  0  0999 V2000
   -0.6312   -1.3430    0.0000 C   0  0  0  0  0  0  0  0  0  0  0  0
    0.2344   -0.8424    0.0000 C   0  0  0  0  0  0  0  0  0  0  0  0
    1.1008   -1.3418    0.0000 C   0  0  0  0  0  0  0  0  0  0  0  0
    1.9664   -0.8410    0.0000 C   0  0  0  0  0  0  0  0  0  0  0  0
    1.9656    0.1590    0.0000 C   0  0  0  0  0  0  0  0  0  0  0  0
    1.0994    0.6582    0.0000 C   0  0  0  0  0  0  0  0  0  0  0  0
    0.2336    0.1576    0.0000 C   0  0  0  0  0  0  0  0  0  0  0  0
   -0.6326    0.6570    0.0000 C   0  0  0  0  0  0  0  0  0  0  0  0
   -0.2914    1.5968    0.0000 N   0  0  0  0  0  0  0  0  0  0  0  0
   -1.2748   -0.1096    0.0000 C   0  0  0  0  0  0  0  0  0  0  0  0
   -1.6176    0.8298    0.0000 C   0  0  0  0  0  0  0  0  0  0  0  0
  1  2  1  0
  2  3  2  0
  3  4  1  0
  4  5  2  0
  5  6  1  0
  6  7  2  0
  7  8  1  0
  8  9  1  0
  8 10  1  0
 10 11  1  0
  7  2  1  0
 11  8  1  0
M  END

> <chembl_id>
CHEMBL4563034

> <chembl_pref_name>
None

$$$$

     RDKit          2D

  9  9  0  0  0  0  0  0  0  0999 V2000
    8.7986  -13.4500    0.0000 N   0  0  0  0  0  0  0  0  0  0  0  0
    8.7974  -14.2773    0.0000 C   0  0  0  0  0  0  0  0  0  0  0  0
    9.5122  -14.6902    0.0000 N   0  0  0  0  0  0  0  0  0  0  0  0
   10.2287  -14.2769    0.0000 C   0  0  0  0  0  0  0  0  0  0  0  0
   10.2258  -13.4463    0.0000 C   0  0  0  0  0  0  0  0  0  0  0  0
    9.5104  -13.0372    0.0000 C   0  0  0  0  0  0  0  0  0  0  0  0
   10.9387  -13.0311    0.0000 N   0  0  0  0  0  0  0  0  0  0  0  0
    9.5080  -12.2122    0.0000 N   0  0  0  0  0  0  0  0  0  0  0  0
   10.9438  -14.6882    0.0000 N   0  0  0  0  0  0  0  0  0  0  0  0
  4  5  1  0
  2  3  1  0
  5  6  2  0
  6  1  1  0
  1  2  2  0
  5  7  1  0
  3  4  2  0
  6  8  1  0
  4  9  1  0
M  END

> <chembl_id>
CHEMBL2151973

> <chembl_pref_name>
None

$$$$

     RDKit          2D

  9 10  0  0  0  0  0  0  0  0999 V2000
    1.8792   -0.7292    0.0000 C   0  0  0  0  0  0  0  0  0  0  0  0
    1.8792   -0.1250    0.0000 C   0  0  0  0  0  0  0  0  0  0  0  0
    1.3625   -0.4250    0.0000 C   0  0  0  0  0  0  0  0  0  0  0  0
    2.1792   -1.2500    0.0000 C   0  0  0  0  0  0  0  0  0  0  0  0
    1.8917   -1.7667    0.0000 C   0  0  0  0  0  0  0  0  0  0  0  0
    2.7917   -1.2417    0.0000 C   0  0  0  0  0  0  0  0  0  0  0  0
    3.0917   -1.7625    0.0000 C   0  0  0  0  0  0  0  0  0  0  0  0
    2.1917   -2.2792    0.0000 C   0  0  0  0  0  0  0  0  0  0  0  0
    2.7917   -2.2792    0.0000 C   0  0  0  0  0  0  0  0  0  0  0  0
  2  1  1  0
  3  1  1  0
  4  1  1  0
  5  4  2  0
  6  4  1  0
  7  6  2  0
  8  5  1  0
  9  7  1  0
  3  2  1  0
  9  8  2  0
M  END

> <chembl_id>
CHEMBL27706

> <chembl_pref_name>
None

$$$$

     RDKit          2D

  9  9  0  0  0  0  0  0  0  0999 V2000
    0.3554    2.5902    0.0000 N   0  0  0  0  0  0  0  0  0  0  0  0
   -0.5116    2.0920    0.0000 C   0  0  0  0  0  0  0  0  0  0  0  0
   -0.5136    1.0920    0.0000 C   0  0  0  0  0  0  0  0  0  0  0  0
    0.3514    0.5904    0.0000 C   0  0  0  0  0  0  0  0  0  0  0  0
    0.3494   -0.4096    0.0000 C   0  0  0  0  0  0  0  0  0  0  0  0
   -0.5176   -0.9080    0.0000 C   0  0  0  0  0  0  0  0  0  0  0  0
   -1.3826   -0.4062    0.0000 C   0  0  0  0  0  0  0  0  0  0  0  0
   -2.2498   -0.9044    0.0000 N   0  0  0  0  0  0  0  0  0  0  0  0
   -1.3806    0.5938    0.0000 N   0  0  0  0  0  0  0  0  0  0  0  0
  1  2  1  0
  2  3  1  0
  3  4  2  0
  4  5  1  0
  5  6  2  0
  6  7  1  0
  7  8  1  0
  7  9  2  0
  9  3  1  0
M  END

> <chembl_id>
CHEMBL4559617

> <chembl_pref_name>
None

$$$$

     RDKit          2D

 10 11  0  0  0  0  0  0  0  0999 V2000
    0.9868    1.6324    0.0000 N   0  0  0  0  0  0  0  0  0  0  0  0
    0.6770    0.6818    0.0000 C   0  0  0  0  0  0  0  0  0  0  0  0
    1.2642   -0.1278    0.0000 C   0  0  0  0  0  0  0  0  0  0  0  0
    0.6758   -0.9362    0.0000 C   0  0  0  0  0  0  0  0  0  0  0  0
   -0.2750   -0.6266    0.0000 C   0  0  0  0  0  0  0  0  0  0  0  0
   -1.1414   -1.1258    0.0000 C   0  0  0  0  0  0  0  0  0  0  0  0
   -2.0070   -0.6252    0.0000 C   0  0  0  0  0  0  0  0  0  0  0  0
   -2.0062    0.3748    0.0000 C   0  0  0  0  0  0  0  0  0  0  0  0
   -1.1398    0.8742    0.0000 C   0  0  0  0  0  0  0  0  0  0  0  0
   -0.2742    0.3734    0.0000 C   0  0  0  0  0  0  0  0  0  0  0  0
  2  1  1  6
  2  3  1  0
  3  4  1  0
  4  5  1  0
  5  6  2  0
  6  7  1  0
  7  8  2  0
  8  9  1  0
  9 10  2  0
 10  2  1  0
 10  5  1  0
M  END

> <chembl_id>
CHEMBL4573666

> <chembl_pref_name>
None

$$$$

     RDKit          2D

 10 10  0  0  0  0  0  0  0  0999 V2000
   -2.6410    0.1668    0.0000 C   0  0  0  0  0  0  0  0  0  0  0  0
   -1.7756   -0.3342    0.0000 C   0  0  0  0  0  0  0  0  0  0  0  0
   -1.7770   -1.3342    0.0000 C   0  0  0  0  0  0  0  0  0  0  0  0
   -0.9092    0.1648    0.0000 N   0  0  0  0  0  0  0  0  0  0  0  0
   -0.8034    1.1590    0.0000 C   0  0  0  0  0  0  0  0  0  0  0  0
    0.1750    1.3660    0.0000 N   0  0  0  0  0  0  0  0  0  0  0  0
    0.6740    0.4994    0.0000 C   0  0  0  0  0  0  0  0  0  0  0  0
    0.0040   -0.2430    0.0000 C   0  0  0  0  0  0  0  0  0  0  0  0
    0.2108   -1.2214    0.0000 C   0  0  0  0  0  0  0  0  0  0  0  0
    1.1614   -1.5314    0.0000 O   0  0  0  0  0  0  0  0  0  0  0  0
  1  2  1  0
  2  3  1  0
  2  4  1  0
  4  5  1  0
  5  6  2  0
  6  7  1  0
  7  8  2  0
  8  9  1  0
  9 10  1  0
  8  4  1  0
M  END

> <chembl_id>
CHEMBL4521670

> <chembl_pref_name>
None

$$$$

     RDKit          2D

 11 12  0  0  0  0  0  0  0  0999 V2000
    9.5554   -7.9618    0.0000 C   0  0  0  0  0  0  0  0  0  0  0  0
    9.5541   -8.7888    0.0000 C   0  0  0  0  0  0  0  0  0  0  0  0
   10.2686   -9.2013    0.0000 C   0  0  0  0  0  0  0  0  0  0  0  0
   10.9845   -8.7882    0.0000 C   0  0  0  0  0  0  0  0  0  0  0  0
   10.9817   -7.9582    0.0000 C   0  0  0  0  0  0  0  0  0  0  0  0
   10.2668   -7.5494    0.0000 C   0  0  0  0  0  0  0  0  0  0  0  0
   11.6942   -7.5433    0.0000 O   0  0  0  0  0  0  0  0  0  0  0  0
   12.4098   -7.9528    0.0000 C   0  0  0  0  0  0  0  0  0  0  0  0
   12.8277   -8.6628    0.0000 C   0  0  0  0  0  0  0  0  0  0  0  0
   13.2372   -7.9473    0.0000 C   0  0  0  0  0  0  0  0  0  0  0  0
   13.9491   -7.5313    0.0000 N   0  0  0  0  0  0  0  0  0  0  0  0
  1  2  2  0
  2  3  1  0
  3  4  2  0
  4  5  1  0
  5  6  2  0
  6  1  1  0
  5  7  1  0
  8  7  1  6
  9  8  1  0
 10  9  1  0
  8 10  1  0
 10 11  1  1
M  END

> <chembl_id>
CHEMBL3330327

> <chembl_pref_name>
None

$$$$

     RDKit          2D

 10 10  0  0  0  0  0  0  0  0999 V2000
   -3.8048   -0.4272    0.0000 C   0  0  0  0  0  0  0  0  0  0  0  0
   -2.9406    0.0758    0.0000 N   0  0  0  0  0  0  0  0  0  0  0  0
   -2.0728   -0.4210    0.0000 C   0  0  0  0  0  0  0  0  0  0  0  0
   -1.2086    0.0820    0.0000 C   0  0  0  0  0  0  0  0  0  0  0  0
   -1.2122    1.0820    0.0000 C   0  0  0  0  0  0  0  0  0  0  0  0
   -0.3480    1.5852    0.0000 C   0  0  0  0  0  0  0  0  0  0  0  0
    0.5198    1.0882    0.0000 C   0  0  0  0  0  0  0  0  0  0  0  0
    1.3840    1.5914    0.0000 C   0  0  0  0  0  0  0  0  0  0  0  0
    0.5236    0.0882    0.0000 C   0  0  0  0  0  0  0  0  0  0  0  0
   -0.3408   -0.4148    0.0000 N   0  0  0  0  0  0  0  0  0  0  0  0
  1  2  1  0
  2  3  1  0
  3  4  1  0
  4  5  2  0
  5  6  1  0
  6  7  2  0
  7  8  1  0
  7  9  1  0
  9 10  2  0
 10  4  1  0
M  END

> <chembl_id>
CHEMBL4547934

> <chembl_pref_name>
None

$$$$

     RDKit          2D

 10 10  0  0  0  0  0  0  0  0999 V2000
    1.4700    2.8012    0.0000 O   0  0  0  0  0  0  0  0  0  0  0  0
    1.4692    1.8012    0.0000 C   0  0  0  0  0  0  0  0  0  0  0  0
    0.6028    1.3018    0.0000 C   0  0  0  0  0  0  0  0  0  0  0  0
    0.6020    0.3018    0.0000 C   0  0  0  0  0  0  0  0  0  0  0  0
   -0.2644   -0.1974    0.0000 C   0  0  0  0  0  0  0  0  0  0  0  0
   -1.1300    0.3032    0.0000 C   0  0  0  0  0  0  0  0  0  0  0  0
   -1.9964   -0.1960    0.0000 C   0  0  0  0  0  0  0  0  0  0  0  0
   -2.8620    0.3046    0.0000 O   0  0  0  0  0  0  0  0  0  0  0  0
   -1.1292    1.3032    0.0000 C   0  0  0  0  0  0  0  0  0  0  0  0
   -0.2628    1.8026    0.0000 C   0  0  0  0  0  0  0  0  0  0  0  0
  1  2  1  0
  2  3  1  0
  3  4  2  0
  4  5  1  0
  5  6  2  0
  6  7  1  0
  7  8  1  0
  6  9  1  0
  9 10  2  0
 10  3  1  0
M  END

> <chembl_id>
CHEMBL4536209

> <chembl_pref_name>
None

$$$$

     RDKit          2D

 11 12  0  0  0  0  0  0  0  0999 V2000
    0.1000    0.1125    0.0000 N   0  0  0  0  0  0  0  0  0  0  0  0
   -1.1375   -2.8917    0.0000 N   0  0  0  0  0  0  0  0  0  0  0  0
   -0.4208   -1.6500    0.0000 C   0  0  0  0  0  0  0  0  0  0  0  0
   -1.1375   -1.2417    0.0000 C   0  0  0  0  0  0  0  0  0  0  0  0
   -0.4208   -2.4792    0.0000 C   0  0  0  0  0  0  0  0  0  0  0  0
   -0.7125    0.1708    0.0000 C   0  0  0  0  0  0  0  0  0  0  0  0
    0.5667   -0.5542    0.0000 C   0  0  0  0  0  0  0  0  0  0  0  0
   -1.8500   -2.4792    0.0000 C   0  0  0  0  0  0  0  0  0  0  0  0
   -1.2625   -0.4375    0.0000 C   0  0  0  0  0  0  0  0  0  0  0  0
    0.3375   -1.3417    0.0000 C   0  0  0  0  0  0  0  0  0  0  0  0
   -1.8500   -1.6542    0.0000 C   0  0  0  0  0  0  0  0  0  0  0  0
  2  5  2  0
  3 10  1  0
  4  9  1  0
  5  3  1  0
  6  1  1  0
  7  1  1  0
  8 11  2  0
  9  6  1  0
 10  7  1  0
 11  4  1  0
  4  3  2  0
  8  2  1  0
M  END

> <chembl_id>
CHEMBL52133

> <chembl_pref_name>
None

$$$$

     RDKit          2D

  9  9  0  0  0  0  0  0  0  0999 V2000
    0.1395    1.8377    0.0000 Cl  0  0  0  0  0  0  0  0  0  0  0  0
   -1.2895    1.0127    0.0000 O   0  0  0  0  0  0  0  0  0  0  0  0
    0.1395   -1.4623    0.0000 O   0  0  0  0  0  0  0  0  0  0  0  0
    0.8540   -0.2248    0.0000 N   0  0  0  0  0  0  0  0  0  0  0  0
   -0.5750    0.6002    0.0000 C   0  0  0  0  0  0  0  0  0  0  0  0
    0.1395    1.0127    0.0000 C   0  0  0  0  0  0  0  0  0  0  0  0
    0.1395   -0.6373    0.0000 C   0  0  0  0  0  0  0  0  0  0  0  0
   -0.5750   -0.2248    0.0000 C   0  0  0  0  0  0  0  0  0  0  0  0
    0.8540    0.6002    0.0000 C   0  0  0  0  0  0  0  0  0  0  0  0
  1  6  1  0
  2  5  1  0
  3  7  1  0
  4  7  1  0
  4  9  2  0
  5  6  2  0
  5  8  1  0
  6  9  1  0
  7  8  2  0
M  END

> <chembl_id>
CHEMBL1730601

> <chembl_pref_name>
GIMERACIL

$$$$

     RDKit          2D

  9  9  0  0  0  0  0  0  0  0999 V2000
    1.5056    0.2642    0.0000 C   0  0  0  0  0  0  0  0  0  0  0  0
    0.5112    0.3698    0.0000 N   0  0  0  0  0  0  0  0  0  0  0  0
   -0.1586   -0.3726    0.0000 C   0  0  0  0  0  0  0  0  0  0  0  0
   -1.0718    0.0352    0.0000 C   0  0  0  0  0  0  0  0  0  0  0  0
   -1.9384   -0.4638    0.0000 C   0  0  0  0  0  0  0  0  0  0  0  0
   -2.8038    0.0372    0.0000 C   0  0  0  0  0  0  0  0  0  0  0  0
   -3.6702   -0.4618    0.0000 N   0  0  0  0  0  0  0  0  0  0  0  0
   -0.9660    1.0296    0.0000 N   0  0  0  0  0  0  0  0  0  0  0  0
    0.0122    1.2364    0.0000 N   0  0  0  0  0  0  0  0  0  0  0  0
  1  2  1  0
  2  3  1  0
  3  4  2  0
  4  5  1  0
  5  6  1  0
  6  7  1  0
  4  8  1  0
  8  9  2  0
  9  2  1  0
M  END

> <chembl_id>
CHEMBL4583199

> <chembl_pref_name>
None

$$$$
 
     RDKit          2D

  9  9  0  0  0  0  0  0  0  0999 V2000
   11.5053  -16.2736    0.0000 N   0  0  0  0  0  0  0  0  0  0  0  0
   11.5042  -17.0932    0.0000 C   0  0  0  0  0  0  0  0  0  0  0  0
   12.2122  -17.5021    0.0000 C   0  0  0  0  0  0  0  0  0  0  0  0
   12.9219  -17.0927    0.0000 C   0  0  0  0  0  0  0  0  0  0  0  0
   12.9190  -16.2700    0.0000 N   0  0  0  0  0  0  0  0  0  0  0  0
   12.2104  -15.8648    0.0000 C   0  0  0  0  0  0  0  0  0  0  0  0
   10.7961  -17.5012    0.0000 Cl  0  0  0  0  0  0  0  0  0  0  0  0
   13.6302  -17.5002    0.0000 N   0  0  0  0  0  0  0  0  0  0  0  0
   12.2080  -15.0476    0.0000 N   0  0  0  0  0  0  0  0  0  0  0  0
  1  2  2  0
  2  3  1  0
  3  4  2  0
  4  5  1  0
  5  6  2  0
  6  1  1  0
  2  7  1  0
  4  8  1  0
  6  9  1  0
M  END

> <chembl_id>
CHEMBL4517551

> <chembl_pref_name>
None

$$$$

     RDKit          2D

  8  8  0  0  0  0  0  0  0  0999 V2000
    1.4430    0.3956    0.0000 N   0  0  0  0  0  0  0  0  0  0  0  0
    0.4486    0.5012    0.0000 C   0  0  0  0  0  0  0  0  0  0  0  0
   -0.2212   -0.2412    0.0000 N   0  0  0  0  0  0  0  0  0  0  0  0
   -1.1344    0.1666    0.0000 C   0  0  0  0  0  0  0  0  0  0  0  0
   -2.0010   -0.3324    0.0000 C   0  0  0  0  0  0  0  0  0  0  0  0
   -2.8662    0.1686    0.0000 O   0  0  0  0  0  0  0  0  0  0  0  0
   -1.0286    1.1610    0.0000 C   0  0  0  0  0  0  0  0  0  0  0  0
   -0.0504    1.3678    0.0000 S   0  0  0  0  0  0  0  0  0  0  0  0
  1  2  1  0
  2  3  2  0
  3  4  1  0
  4  5  1  0
  5  6  1  0
  4  7  2  0
  7  8  1  0
  8  2  1  0
M  END

> <chembl_id>
CHEMBL4563626

> <chembl_pref_name>
None

$$$$

     RDKit          2D

  9  9  0  0  0  0  0  0  0  0999 V2000
    1.2990   -0.7500    0.0000 N   0  0  0  0  0  0  0  0  0  0  0  0
    1.2990    0.7500    0.0000 C   0  0  0  0  0  0  0  0  0  0  0  0
    0.0000    1.5000    0.0000 N   0  0  0  0  0  0  0  0  0  0  0  0
   -1.2990    0.7500    0.0000 C   0  0  0  0  0  0  0  0  0  0  0  0
   -1.2990   -0.7500    0.0000 C   0  0  0  0  0  0  0  0  0  0  0  0
    0.0000   -1.5000    0.0000 C   0  0  0  0  0  0  0  0  0  0  0  0
    2.5972    1.5031    0.0000 N   0  0  0  0  0  0  0  0  0  0  0  0
    2.5955    2.7031    0.0000 N   0  0  0  0  0  0  0  0  0  0  0  0
   -2.3383    1.3500    0.0000 C   0  0  0  0  0  0  0  0  0  0  0  0
  1  2  2  0
  2  3  1  0
  3  4  2  0
  4  5  1  0
  5  6  2  0
  6  1  1  0
  2  7  1  0
  7  8  1  0
  4  9  1  0
M  END

> <chembl_id>
CHEMBL3793498

> <chembl_pref_name>
None

$$$$

     RDKit          2D

  9  9  0  0  0  0  0  0  0  0999 V2000
   -3.4670   -0.2324    0.0000 N   0  0  0  0  0  0  0  0  0  0  0  0
   -2.6018   -0.7334    0.0000 C   0  0  0  0  0  0  0  0  0  0  0  0
   -1.7352   -0.2344    0.0000 C   0  0  0  0  0  0  0  0  0  0  0  0
   -0.8698   -0.7354    0.0000 C   0  0  0  0  0  0  0  0  0  0  0  0
   -0.0034   -0.2364    0.0000 C   0  0  0  0  0  0  0  0  0  0  0  0
    0.9098   -0.6442    0.0000 C   0  0  0  0  0  0  0  0  0  0  0  0
    1.5798    0.0982    0.0000 N   0  0  0  0  0  0  0  0  0  0  0  0
    1.0808    0.9650    0.0000 N   0  0  0  0  0  0  0  0  0  0  0  0
    0.1024    0.7580    0.0000 C   0  0  0  0  0  0  0  0  0  0  0  0
  1  2  1  0
  2  3  1  0
  3  4  1  0
  4  5  1  0
  5  6  1  0
  6  7  2  0
  7  8  1  0
  8  9  1  0
  9  5  2  0
M  END

> <chembl_id>
CHEMBL4514251

> <chembl_pref_name>
None

$$$$

     RDKit          2D

  9  9  0  0  0  0  0  0  0  0999 V2000
    1.2990   -0.7500    0.0000 N   0  0  0  0  0  0  0  0  0  0  0  0
    1.2990    0.7500    0.0000 C   0  0  0  0  0  0  0  0  0  0  0  0
    0.0000    1.5000    0.0000 N   0  0  0  0  0  0  0  0  0  0  0  0
   -1.2990    0.7500    0.0000 C   0  0  0  0  0  0  0  0  0  0  0  0
   -1.2990   -0.7500    0.0000 C   0  0  0  0  0  0  0  0  0  0  0  0
    0.0000   -1.5000    0.0000 C   0  0  0  0  0  0  0  0  0  0  0  0
    2.5972    1.5031    0.0000 N   0  0  0  0  0  0  0  0  0  0  0  0
    2.5955    2.7031    0.0000 N   0  0  0  0  0  0  0  0  0  0  0  0
   -2.3383   -1.3500    0.0000 Cl  0  0  0  0  0  0  0  0  0  0  0  0
  1  2  2  0
  2  3  1  0
  3  4  2  0
  4  5  1  0
  5  6  2  0
  6  1  1  0
  2  7  1  0
  7  8  1  0
  5  9  1  0
M  END

> <chembl_id>
CHEMBL3793856

> <chembl_pref_name>
None

$$$$

     RDKit          2D

 10 10  0  0  0  0  0  0  0  0999 V2000
    1.4077   -6.2047    0.0000 C   0  0  0  0  0  0  0  0  0  0  0  0
    1.4064   -7.0308    0.0000 C   0  0  0  0  0  0  0  0  0  0  0  0
    2.1182   -7.4431    0.0000 C   0  0  0  0  0  0  0  0  0  0  0  0
    2.8364   -7.0304    0.0000 C   0  0  0  0  0  0  0  0  0  0  0  0
    2.8333   -6.2006    0.0000 C   0  0  0  0  0  0  0  0  0  0  0  0
    2.1162   -5.7926    0.0000 C   0  0  0  0  0  0  0  0  0  0  0  0
    3.5444   -5.7853    0.0000 N   0  0  0  0  0  0  0  0  0  0  0  0
    4.2578   -6.1971    0.0000 C   0  0  0  0  0  0  0  0  0  0  0  0
    4.9710   -5.7853    0.0000 C   0  0  0  0  0  0  0  0  0  0  0  0
    5.6843   -6.1971    0.0000 O   0  0  0  0  0  0  0  0  0  0  0  0
  5  7  1  0
  3  4  2  0
  4  5  1  0
  2  3  1  0
  5  6  2  0
  6  1  1  0
  1  2  2  0
  7  8  1  0
  8  9  1  0
  9 10  1  0
M  END

> <chembl_id>
CHEMBL1908069

> <chembl_pref_name>
None

$$$$

     RDKit          2D

  9  9  0  0  0  0  0  0  0  0999 V2000
    9.1688  -18.5110    0.0000 C   0  0  0  0  0  0  0  0  0  0  0  0
    9.1676  -19.3380    0.0000 C   0  0  0  0  0  0  0  0  0  0  0  0
    9.8820  -19.7506    0.0000 C   0  0  0  0  0  0  0  0  0  0  0  0
   10.5981  -19.3375    0.0000 C   0  0  0  0  0  0  0  0  0  0  0  0
   10.5952  -18.5074    0.0000 C   0  0  0  0  0  0  0  0  0  0  0  0
    9.8802  -18.0985    0.0000 C   0  0  0  0  0  0  0  0  0  0  0  0
    9.8778  -17.2739    0.0000 O   0  0  0  0  0  0  0  0  0  0  0  0
   11.3077  -18.0925    0.0000 C   0  0  0  0  0  0  0  0  0  0  0  0
    9.8818  -20.5752    0.0000 F   0  0  0  0  0  0  0  0  0  0  0  0
  4  5  1  0
  2  3  1  0
  5  6  2  0
  6  1  1  0
  1  2  2  0
  6  7  1  0
  3  4  2  0
  5  8  1  0
  3  9  1  0
M  END

> <chembl_id>
CHEMBL224550

> <chembl_pref_name>
None

$$$$

     RDKit          2D

 11 11  0  0  0  0  0  0  0  0999 V2000
   -1.7711   -2.5642    0.0000 C   0  0  0  0  0  0  0  0  0  0  0  0
   -2.4856   -2.9767    0.0000 C   0  0  0  0  0  0  0  0  0  0  0  0
   -2.4856   -3.8017    0.0000 C   0  0  0  0  0  0  0  0  0  0  0  0
   -1.7711   -4.2142    0.0000 C   0  0  0  0  0  0  0  0  0  0  0  0
   -1.0567   -3.8017    0.0000 C   0  0  0  0  0  0  0  0  0  0  0  0
   -1.0567   -2.9767    0.0000 C   0  0  0  0  0  0  0  0  0  0  0  0
   -0.3422   -4.2142    0.0000 C   0  0  0  0  0  0  0  0  0  0  0  0
    0.3723   -3.8017    0.0000 C   0  0  0  0  0  0  0  0  0  0  0  0
   -0.3422   -5.0392    0.0000 O   0  0  0  0  0  0  0  0  0  0  0  0
   -1.7711   -1.7392    0.0000 C   0  0  0  0  0  0  0  0  0  0  0  0
   -3.2001   -4.2142    0.0000 C   0  0  0  0  0  0  0  0  0  0  0  0
  5  6  2  0
  6  1  1  0
  1  2  2  0
  5  7  1  0
  3  4  2  0
  7  8  1  0
  7  9  2  0
  4  5  1  0
  1 10  1  0
  2  3  1  0
  3 11  1  0
M  END

> <chembl_id>
CHEMBL558696

> <chembl_pref_name>
None

$$$$

     RDKit          2D

  8  8  0  0  0  0  0  0  0  0999 V2000
   -1.8662    0.1686    0.0000 C   0  0  0  0  0  0  0  0  0  0  0  0
   -1.0010   -0.3324    0.0000 O   0  0  0  0  0  0  0  0  0  0  0  0
   -0.1344    0.1666    0.0000 C   0  0  0  0  0  0  0  0  0  0  0  0
    0.7788   -0.2412    0.0000 N   0  0  0  0  0  0  0  0  0  0  0  0
    1.4486    0.5012    0.0000 C   0  0  0  0  0  0  0  0  0  0  0  0
    2.4430    0.3956    0.0000 N   0  0  0  0  0  0  0  0  0  0  0  0
    0.9496    1.3678    0.0000 N   0  0  0  0  0  0  0  0  0  0  0  0
   -0.0286    1.1610    0.0000 N   0  0  0  0  0  0  0  0  0  0  0  0
  1  2  1  0
  2  3  1  0
  3  4  2  0
  4  5  1  0
  5  6  1  0
  5  7  2  0
  7  8  1  0
  8  3  1  0
M  END

> <chembl_id>
CHEMBL4562309

> <chembl_pref_name>
None

$$$$

     RDKit          2D

  7  7  0  0  0  0  0  0  0  0999 V2000
   12.2457  -14.5832    0.0000 N   0  0  0  0  0  0  0  0  0  0  0  0
   13.0707  -14.5832    0.0000 C   0  0  0  0  0  0  0  0  0  0  0  0
   13.3275  -13.7991    0.0000 S   0  0  0  0  0  0  0  0  0  0  0  0
   12.6582  -13.3124    0.0000 C   0  0  0  0  0  0  0  0  0  0  0  0
   11.9931  -13.7991    0.0000 C   0  0  0  0  0  0  0  0  0  0  0  0
   12.6582  -12.4874    0.0000 C   0  0  0  0  0  0  0  0  0  0  0  0
   13.3707  -12.0738    0.0000 O   0  0  0  0  0  0  0  0  0  0  0  0
  1  2  2  0
  2  3  1  0
  3  4  1  0
  4  5  2  0
  5  1  1  0
  4  6  1  0
  6  7  2  0
M  END

> <chembl_id>
CHEMBL2228158

> <chembl_pref_name>
THIAZOLE-5-CARBALDEHYDE

$$$$

     RDKit          2D

 10 10  0  0  0  0  0  0  0  0999 V2000
   15.1439  -23.0403    0.0000 O   0  0  0  0  0  0  0  0  0  0  0  0
   15.5564  -22.3258    0.0000 C   0  0  0  0  0  0  0  0  0  0  0  0
   15.1439  -21.6114    0.0000 C   0  0  0  0  0  0  0  0  0  0  0  0
   15.5564  -20.8969    0.0000 C   0  0  0  0  0  0  0  0  0  0  0  0
   15.1439  -20.1824    0.0000 O   0  0  0  0  0  0  0  0  0  0  0  0
   16.3814  -20.8969    0.0000 C   0  0  0  0  0  0  0  0  0  0  0  0
   16.7939  -21.6114    0.0000 C   0  0  0  0  0  0  0  0  0  0  0  0
   16.3814  -22.3258    0.0000 C   0  0  0  0  0  0  0  0  0  0  0  0
   17.6189  -21.6114    0.0000 F   0  0  0  0  0  0  0  0  0  0  0  0
   14.3189  -21.6114    0.0000 F   0  0  0  0  0  0  0  0  0  0  0  0
  1  2  1  0
  2  3  1  0
  3  4  2  0
  4  5  1  0
  4  6  1  0
  6  7  2  0
  7  8  1  0
  2  8  2  0
  7  9  1  0
  3 10  1  0
M  END

> <chembl_id>
CHEMBL2332780

> <chembl_pref_name>
None

$$$$

     RDKit          2D

  9  9  0  0  0  0  0  0  0  0999 V2000
    0.7033    0.2292    0.0000 N   0  0  0  0  0  0  0  0  0  0  0  0
    0.7033   -0.5958    0.0000 C   0  0  0  0  0  0  0  0  0  0  0  0
   -0.7257    0.2292    0.0000 N   0  0  0  0  0  0  0  0  0  0  0  0
   -1.4401    0.6417    0.0000 C   0  0  0  0  0  0  0  0  0  0  0  0
   -0.0112    0.6417    0.0000 C   0  0  0  0  0  0  0  0  0  0  0  0
   -0.0112    1.4667    0.0000 O   0  0  0  0  0  0  0  0  0  0  0  0
    1.4178   -1.0083    0.0000 N   0  0  0  0  0  0  0  0  0  0  0  0
   -0.0112   -1.0083    0.0000 C   0  0  0  0  0  0  0  0  0  0  0  0
   -0.7257   -0.5958    0.0000 C   0  0  0  0  0  0  0  0  0  0  0  0
  2  1  2  0
  5  1  1  0
  2  7  1  0
  2  8  1  0
  4  3  1  0
  5  3  1  0
  9  3  1  0
  5  6  2  0
  8  9  2  0
M  END

> <chembl_id>
CHEMBL500883

> <chembl_pref_name>
None

$$$$

     RDKit          2D

  9  9  0  0  0  0  0  0  0  0999 V2000
    1.0742    0.2631    0.0000 O   0  0  0  0  0  0  0  0  0  0  0  0
   -0.3548    0.2631    0.0000 O   0  0  0  0  0  0  0  0  0  0  0  0
   -0.3078   -1.4593    0.0000 N   0  0  0  0  0  0  0  0  0  0  0  0
    0.7722   -2.2439    0.0000 N   0  0  0  0  0  0  0  0  0  0  0  0
    0.3597   -0.9744    0.0000 C   0  0  0  0  0  0  0  0  0  0  0  0
    0.3597   -0.1494    0.0000 C   0  0  0  0  0  0  0  0  0  0  0  0
    1.0271   -1.4593    0.0000 C   0  0  0  0  0  0  0  0  0  0  0  0
   -0.0528   -2.2439    0.0000 C   0  0  0  0  0  0  0  0  0  0  0  0
    1.0742    1.0881    0.0000 C   0  0  0  0  0  0  0  0  0  0  0  0
  1  6  1  0
  1  9  1  0
  2  6  2  0
  3  5  1  0
  3  8  2  0
  4  7  1  0
  4  8  1  0
  5  6  1  0
  5  7  2  0
M  END

> <chembl_id>
CHEMBL1866040

> <chembl_pref_name>
None

$$$$

     RDKit          2D

 10 11  0  0  0  0  0  0  0  0999 V2000
   -1.5620   -1.3370    0.0000 O   0  0  0  0  0  0  0  0  0  0  0  0
   -0.6964   -0.8364    0.0000 C   0  0  0  0  0  0  0  0  0  0  0  0
   -0.6972    0.1636    0.0000 C   0  0  0  0  0  0  0  0  0  0  0  0
    0.1684    0.6644    0.0000 C   0  0  0  0  0  0  0  0  0  0  0  0
    1.0348    0.1650    0.0000 C   0  0  0  0  0  0  0  0  0  0  0  0
    1.0356   -0.8350    0.0000 C   0  0  0  0  0  0  0  0  0  0  0  0
    0.1700   -1.3356    0.0000 C   0  0  0  0  0  0  0  0  0  0  0  0
    1.9868   -1.1432    0.0000 C   0  0  0  0  0  0  0  0  0  0  0  0
    2.5740   -0.3338    0.0000 O   0  0  0  0  0  0  0  0  0  0  0  0
    1.9856    0.4748    0.0000 C   0  0  0  0  0  0  0  0  0  0  0  0
  1  2  1  0
  2  3  2  0
  3  4  1  0
  4  5  2  0
  5  6  1  0
  6  7  2  0
  6  8  1  0
  8  9  1  0
  9 10  1  0
  7  2  1  0
 10  5  1  0
M  END

> <chembl_id>
CHEMBL4588521

> <chembl_pref_name>
None

$$$$

     RDKit          2D

 10 10  0  0  0  0  0  0  0  0999 V2000
   -2.5886    0.6700    0.0000 C   0  0  0  0  0  0  0  0  0  0  0  0
   -1.7220    0.1710    0.0000 C   0  0  0  0  0  0  0  0  0  0  0  0
   -1.7206   -0.8290    0.0000 C   0  0  0  0  0  0  0  0  0  0  0  0
   -0.8566    0.6720    0.0000 C   0  0  0  0  0  0  0  0  0  0  0  0
   -0.8578    1.6720    0.0000 N   0  0  0  0  0  0  0  0  0  0  0  0
    0.0100    0.1730    0.0000 C   0  0  0  0  0  0  0  0  0  0  0  0
    0.9230    0.5808    0.0000 N   0  0  0  0  0  0  0  0  0  0  0  0
    1.5930   -0.1616    0.0000 C   0  0  0  0  0  0  0  0  0  0  0  0
    1.0940   -1.0282    0.0000 O   0  0  0  0  0  0  0  0  0  0  0  0
    0.1156   -0.8212    0.0000 N   0  0  0  0  0  0  0  0  0  0  0  0
  1  2  1  0
  2  3  1  0
  2  4  1  0
  4  5  1  0
  4  6  1  0
  6  7  1  0
  7  8  2  0
  8  9  1  0
  9 10  1  0
 10  6  2  0
M  END

> <chembl_id>
CHEMBL4572806

> <chembl_pref_name>
None

$$$$

     RDKit          2D

  8  8  0  0  0  0  0  0  0  0999 V2000
    0.9512   -1.4426    0.0000 N   0  0  0  0  0  0  0  0  0  0  0  0
    0.9000   -0.4438    0.0000 C   0  0  0  0  0  0  0  0  0  0  0  0
    1.7392    0.0998    0.0000 O   0  0  0  0  0  0  0  0  0  0  0  0
    0.0096    0.0112    0.0000 C   0  0  0  0  0  0  0  0  0  0  0  0
   -0.1456    0.9990    0.0000 C   0  0  0  0  0  0  0  0  0  0  0  0
   -1.1332    1.1568    0.0000 N   0  0  0  0  0  0  0  0  0  0  0  0
   -1.5882    0.2662    0.0000 C   0  0  0  0  0  0  0  0  0  0  0  0
   -0.8820   -0.4416    0.0000 N   0  0  0  0  0  0  0  0  0  0  0  0
  1  2  1  0
  2  3  2  0
  2  4  1  0
  4  5  2  0
  5  6  1  0
  6  7  1  0
  7  8  2  0
  8  4  1  0
M  END

> <chembl_id>
CHEMBL4558068

> <chembl_pref_name>
None

$$$$

     RDKit          2D

 10 10  0  0  0  0  0  0  0  0999 V2000
   -2.5233   -9.8882    0.0000 C   0  0  0  0  0  0  0  0  0  0  0  0
   -3.3483   -9.8882    0.0000 C   0  0  0  0  0  0  0  0  0  0  0  0
   -3.7587  -10.6005    0.0000 C   0  0  0  0  0  0  0  0  0  0  0  0
   -4.5838  -10.6005    0.0000 C   0  0  0  0  0  0  0  0  0  0  0  0
   -4.9985   -9.8882    0.0000 C   0  0  0  0  0  0  0  0  0  0  0  0
   -4.5838   -9.1717    0.0000 N   0  0  0  0  0  0  0  0  0  0  0  0
   -3.7587   -9.1717    0.0000 C   0  0  0  0  0  0  0  0  0  0  0  0
   -2.1086   -9.1717    0.0000 O   0  0  0  0  0  0  0  0  0  0  0  0
   -2.1086  -10.6005    0.0000 O   0  0  0  0  0  0  0  0  0  0  0  0
   -4.9988   -8.4610    0.0000 C   0  0  0  0  0  0  0  0  0  0  0  0
  1  2  1  0
  2  3  1  0
  3  4  2  0
  4  5  1  0
  5  6  2  0
  6  7  1  0
  2  7  2  0
  1  8  2  0
  1  9  1  0
  6 10  1  0
M  CHG  1   6   1
M  END

> <chembl_id>
CHEMBL1187085

> <chembl_pref_name>
None

$$$$
 
     RDKit          2D

 10 10  0  0  0  0  0  0  0  0999 V2000
   20.5976  -11.5438    0.0000 C   0  0  0  0  0  0  0  0  0  0  0  0
   20.5964  -12.3634    0.0000 C   0  0  0  0  0  0  0  0  0  0  0  0
   21.3045  -12.7723    0.0000 C   0  0  0  0  0  0  0  0  0  0  0  0
   22.0141  -12.3629    0.0000 C   0  0  0  0  0  0  0  0  0  0  0  0
   22.0113  -11.5402    0.0000 C   0  0  0  0  0  0  0  0  0  0  0  0
   21.3027  -11.1350    0.0000 C   0  0  0  0  0  0  0  0  0  0  0  0
   21.3003  -10.3178    0.0000 C   0  0  0  0  0  0  0  0  0  0  0  0
   22.0067   -9.9071    0.0000 C   0  0  0  0  0  0  0  0  0  0  0  0
   22.0043   -9.0899    0.0000 O   0  0  0  0  0  0  0  0  0  0  0  0
   22.7108   -8.6792    0.0000 C   0  0  0  0  0  0  0  0  0  0  0  0
  1  2  2  0
  2  3  1  0
  3  4  2  0
  4  5  1  0
  5  6  2  0
  6  1  1  0
  6  7  1  0
  7  8  1  0
  8  9  1  0
  9 10  1  0
M  END

> <chembl_id>
CHEMBL4528537

> <chembl_pref_name>
None

$$$$
 
     RDKit          2D

  9  9  0  0  0  0  0  0  0  0999 V2000
    2.6579   -5.9309    0.0000 C   0  0  0  0  0  0  0  0  0  0  0  0
    3.4751   -5.9309    0.0000 C   0  0  0  0  0  0  0  0  0  0  0  0
    3.7295   -5.1541    0.0000 N   0  0  0  0  0  0  0  0  0  0  0  0
    3.0665   -4.6720    0.0000 O   0  0  0  0  0  0  0  0  0  0  0  0
    2.4078   -5.1541    0.0000 N   0  0  0  0  0  0  0  0  0  0  0  0
    3.9547   -6.5925    0.0000 N   0  0  0  0  0  0  0  0  0  0  0  0
    2.1767   -6.5914    0.0000 C   0  0  0  0  0  0  0  0  0  0  0  0
    1.3641   -6.5049    0.0000 O   0  0  0  0  0  0  0  0  0  0  0  0
    2.5081   -7.3383    0.0000 O   0  0  0  0  0  0  0  0  0  0  0  0
  1  2  1  0
  2  3  2  0
  3  4  1  0
  4  5  1  0
  5  1  2  0
  2  6  1  0
  1  7  1  0
  7  8  1  0
  7  9  2  0
M  END

> <chembl_id>
CHEMBL4579122

> <chembl_pref_name>
None

$$$$

     RDKit          2D

  9  9  0  0  0  0  0  0  0  0999 V2000
   -1.7278    0.3106    0.0000 C   0  0  0  0  0  0  0  0  0  0  0  0
   -0.8632    0.8130    0.0000 C   0  0  0  0  0  0  0  0  0  0  0  0
    0.0042    0.3154    0.0000 N   0  0  0  0  0  0  0  0  0  0  0  0
    0.1114   -0.6788    0.0000 N   0  0  0  0  0  0  0  0  0  0  0  0
    1.0900   -0.8840    0.0000 C   0  0  0  0  0  0  0  0  0  0  0  0
    1.5876   -0.0166    0.0000 C   0  0  0  0  0  0  0  0  0  0  0  0
    2.5818    0.0906    0.0000 N   0  0  0  0  0  0  0  0  0  0  0  0
    0.9166    0.7246    0.0000 C   0  0  0  0  0  0  0  0  0  0  0  0
    1.1218    1.7034    0.0000 C   0  0  0  0  0  0  0  0  0  0  0  0
  1  2  1  0
  2  3  1  0
  3  4  1  0
  4  5  2  0
  5  6  1  0
  6  7  1  0
  6  8  2  0
  8  9  1  0
  8  3  1  0
M  END

> <chembl_id>
CHEMBL4592782

> <chembl_pref_name>
None

$$$$

     RDKit          2D

 10 10  0  0  0  0  0  0  0  0999 V2000
    0.7162    2.0708    0.0000 C   0  0  0  0  0  0  0  0  0  0  0  0
   -0.1508    1.5724    0.0000 N   0  0  0  0  0  0  0  0  0  0  0  0
   -0.1528    0.5724    0.0000 C   0  0  0  0  0  0  0  0  0  0  0  0
    0.7122    0.0708    0.0000 N   0  0  0  0  0  0  0  0  0  0  0  0
    0.7102   -0.9292    0.0000 C   0  0  0  0  0  0  0  0  0  0  0  0
   -0.1568   -1.4274    0.0000 C   0  0  0  0  0  0  0  0  0  0  0  0
   -1.0218   -0.9258    0.0000 C   0  0  0  0  0  0  0  0  0  0  0  0
   -1.0198    0.0742    0.0000 C   0  0  0  0  0  0  0  0  0  0  0  0
   -1.8848    0.5760    0.0000 C   0  0  0  0  0  0  0  0  0  0  0  0
   -2.7518    0.0776    0.0000 N   0  0  0  0  0  0  0  0  0  0  0  0
  1  2  1  0
  2  3  1  0
  3  4  2  0
  4  5  1  0
  5  6  2  0
  6  7  1  0
  7  8  2  0
  8  9  1  0
  9 10  1  0
  8  3  1  0
M  END

> <chembl_id>
CHEMBL4547051

> <chembl_pref_name>
None

$$$$

     RDKit          2D

  8  8  0  0  0  0  0  0  0  0999 V2000
   -1.7998   -1.4320    0.0000 C   0  0  0  0  0  0  0  0  0  0  0  0
   -0.9334   -0.9326    0.0000 C   0  0  0  0  0  0  0  0  0  0  0  0
   -0.0678   -1.4334    0.0000 C   0  0  0  0  0  0  0  0  0  0  0  0
    0.7986   -0.9340    0.0000 C   0  0  0  0  0  0  0  0  0  0  0  0
    0.7994    0.0660    0.0000 C   0  0  0  0  0  0  0  0  0  0  0  0
   -0.0662    0.5666    0.0000 N   0  0  0  0  0  0  0  0  0  0  0  0
   -0.9326    0.0674    0.0000 C   0  0  0  0  0  0  0  0  0  0  0  0
   -1.7982    0.5680    0.0000 O   0  0  0  0  0  0  0  0  0  0  0  0
  1  2  1  0
  2  3  2  0
  3  4  1  0
  4  5  2  0
  5  6  1  0
  6  7  1  0
  7  8  2  0
  7  2  1  0
M  END

> <chembl_id>
CHEMBL4548076

> <chembl_pref_name>
None

$$$$

     RDKit          2D

  8  8  0  0  0  0  0  0  0  0999 V2000
   -0.6583  -15.7500    0.0000 N   0  0  0  0  0  0  0  0  0  0  0  0
   -1.2625  -15.7792    0.0000 C   0  0  0  0  0  0  0  0  0  0  0  0
   -0.4458  -16.3167    0.0000 C   0  0  0  0  0  0  0  0  0  0  0  0
   -0.9125  -16.6917    0.0000 S   0  0  0  0  0  0  0  0  0  0  0  0
   -1.4208  -16.3625    0.0000 C   0  0  0  0  0  0  0  0  0  0  0  0
    0.1167  -16.5375    0.0000 N   0  0  0  0  0  0  0  0  0  0  0  0
   -1.6375  -15.3042    0.0000 O   0  0  0  0  0  0  0  0  0  0  0  0
   -1.9833  -16.5792    0.0000 C   0  0  0  0  0  0  0  0  0  0  0  0
  2  1  1  0
  3  1  2  0
  4  3  1  0
  5  2  2  0
  6  3  1  0
  7  2  1  0
  8  5  1  0
  5  4  1  0
M  END

> <chembl_id>
CHEMBL309147

> <chembl_pref_name>
None

$$$$

     RDKit          2D

 10 10  0  0  0  0  0  0  0  0999 V2000
    3.6387   -0.8963    0.0000 C   0  0  0  0  0  0  0  0  0  0  0  0
    2.6003   -1.4977    0.0000 N   0  0  0  0  0  0  0  0  0  0  0  0
    1.2990   -0.7500    0.0000 C   0  0  0  0  0  0  0  0  0  0  0  0
    1.2990    0.7500    0.0000 N   0  0  0  0  0  0  0  0  0  0  0  0
    0.0000    1.5000    0.0000 C   0  0  0  0  0  0  0  0  0  0  0  0
    0.0000    2.7000    0.0000 O   0  0  0  0  0  0  0  0  0  0  0  0
   -1.2990    0.7500    0.0000 N   0  0  0  0  0  0  0  0  0  0  0  0
   -1.2990   -0.7500    0.0000 C   0  0  0  0  0  0  0  0  0  0  0  0
    0.0000   -1.5000    0.0000 C   0  0  0  0  0  0  0  0  0  0  0  0
    0.0000   -2.7000    0.0000 F   0  0  0  0  0  0  0  0  0  0  0  0
  1  2  1  0
  2  3  1  0
  3  4  2  3
  4  5  1  0
  5  6  2  0
  5  7  1  0
  7  8  1  0
  8  9  2  3
  9  3  1  0
  9 10  1  0
M  END

> <chembl_id>
CHEMBL4524647

> <chembl_pref_name>
None

$$$$

     RDKit          2D

  9  9  0  0  0  0  0  0  0  0999 V2000
    0.2438    2.1756    0.0000 N   0  0  0  0  0  0  0  0  0  0  0  0
   -0.6232    1.6774    0.0000 C   0  0  0  0  0  0  0  0  0  0  0  0
   -0.6252    0.6774    0.0000 C   0  0  0  0  0  0  0  0  0  0  0  0
    0.2398    0.1756    0.0000 C   0  0  0  0  0  0  0  0  0  0  0  0
    0.2378   -0.8244    0.0000 C   0  0  0  0  0  0  0  0  0  0  0  0
   -0.6292   -1.3226    0.0000 C   0  0  0  0  0  0  0  0  0  0  0  0
   -1.4942   -0.8208    0.0000 N   0  0  0  0  0  0  0  0  0  0  0  0
   -1.4922    0.1790    0.0000 C   0  0  0  0  0  0  0  0  0  0  0  0
   -2.3572    0.6808    0.0000 N   0  0  0  0  0  0  0  0  0  0  0  0
  1  2  1  0
  2  3  1  0
  3  4  2  0
  4  5  1  0
  5  6  2  0
  6  7  1  0
  7  8  2  0
  8  9  1  0
  8  3  1  0
M  END

> <chembl_id>
CHEMBL4518239

> <chembl_pref_name>
None

$$$$

     RDKit          2D

  9  9  0  0  0  0  0  0  0  0999 V2000
   -2.6638   -0.6644    0.0000 C   0  0  0  0  0  0  0  0  0  0  0  0
   -1.7972   -0.1654    0.0000 C   0  0  0  0  0  0  0  0  0  0  0  0
   -1.7958    0.8346    0.0000 N   0  0  0  0  0  0  0  0  0  0  0  0
   -0.9318   -0.6664    0.0000 C   0  0  0  0  0  0  0  0  0  0  0  0
   -0.0652   -0.1674    0.0000 C   0  0  0  0  0  0  0  0  0  0  0  0
    0.0404    0.8268    0.0000 C   0  0  0  0  0  0  0  0  0  0  0  0
    1.0188    1.0338    0.0000 C   0  0  0  0  0  0  0  0  0  0  0  0
    1.5178    0.1672    0.0000 C   0  0  0  0  0  0  0  0  0  0  0  0
    0.8480   -0.5752    0.0000 O   0  0  0  0  0  0  0  0  0  0  0  0
  1  2  1  0
  2  3  1  0
  2  4  1  0
  4  5  1  0
  5  6  2  0
  6  7  1  0
  7  8  2  0
  8  9  1  0
  9  5  1  0
M  END

> <chembl_id>
CHEMBL4562538

> <chembl_pref_name>
None

$$$$
 
     RDKit          2D

  8  8  0  0  0  0  0  0  0  0999 V2000
    9.5696   -9.9177    0.0000 N   0  0  0  0  0  0  0  0  0  0  0  0
    9.5685  -10.7372    0.0000 C   0  0  0  0  0  0  0  0  0  0  0  0
   10.2765  -11.1462    0.0000 C   0  0  0  0  0  0  0  0  0  0  0  0
   10.9862  -10.7368    0.0000 C   0  0  0  0  0  0  0  0  0  0  0  0
   10.9834   -9.9141    0.0000 C   0  0  0  0  0  0  0  0  0  0  0  0
   10.2747   -9.5088    0.0000 C   0  0  0  0  0  0  0  0  0  0  0  0
   11.6945  -11.1442    0.0000 C   0  0  0  0  0  0  0  0  0  0  0  0
   12.3982  -11.5521    0.0000 C   0  0  0  0  0  0  0  0  0  0  0  0
  1  2  2  0
  2  3  1  0
  3  4  2  0
  4  5  1  0
  5  6  2  0
  6  1  1  0
  4  7  1  0
  7  8  3  0
M  END

> <chembl_id>
CHEMBL4547890

> <chembl_pref_name>
None

$$$$

     RDKit          2D

  9  9  0  0  0  0  0  0  0  0999 V2000
    0.5118    0.1083    0.0000 S   0  0  0  0  0  0  0  0  0  0  0  0
    0.4062   -2.0974    0.0000 O   0  0  0  0  0  0  0  0  0  0  0  0
   -0.5682   -0.6763    0.0000 N   0  0  0  0  0  0  0  0  0  0  0  0
   -0.8231    0.1083    0.0000 N   0  0  0  0  0  0  0  0  0  0  0  0
   -0.1557    1.4182    0.0000 N   0  0  0  0  0  0  0  0  0  0  0  0
    0.2568   -0.6763    0.0000 C   0  0  0  0  0  0  0  0  0  0  0  0
   -0.1557    0.5932    0.0000 C   0  0  0  0  0  0  0  0  0  0  0  0
    0.7418   -1.3438    0.0000 C   0  0  0  0  0  0  0  0  0  0  0  0
    0.8911   -2.7649    0.0000 C   0  0  0  0  0  0  0  0  0  0  0  0
  1  6  1  0
  1  7  1  0
  2  8  1  0
  2  9  1  0
  3  4  1  0
  3  6  2  0
  4  7  2  0
  5  7  1  0
  6  8  1  0
M  END

> <chembl_id>
CHEMBL1430496

> <chembl_pref_name>
None

$$$$

     RDKit          2D

 10 10  0  0  0  0  0  0  0  0999 V2000
   10.2547   -5.9225    0.0000 C   0  0  0  0  0  0  0  0  0  0  0  0
   10.2536   -6.7421    0.0000 C   0  0  0  0  0  0  0  0  0  0  0  0
   10.9616   -7.1510    0.0000 N   0  0  0  0  0  0  0  0  0  0  0  0
   11.6713   -6.7416    0.0000 C   0  0  0  0  0  0  0  0  0  0  0  0
   11.6685   -5.9189    0.0000 C   0  0  0  0  0  0  0  0  0  0  0  0
   10.9599   -5.5137    0.0000 C   0  0  0  0  0  0  0  0  0  0  0  0
   12.3797   -7.1491    0.0000 C   0  0  0  0  0  0  0  0  0  0  0  0
   12.3746   -5.5077    0.0000 C   0  0  0  0  0  0  0  0  0  0  0  0
   13.0867   -6.7394    0.0000 C   0  0  0  0  0  0  0  0  0  0  0  0
   13.7951   -7.1469    0.0000 O   0  0  0  0  0  0  0  0  0  0  0  0
  1  2  2  0
  2  3  1  0
  3  4  2  0
  4  5  1  0
  5  6  2  0
  6  1  1  0
  4  7  1  0
  5  8  1  0
  7  9  1  0
  9 10  1  0
M  END

> <chembl_id>
CHEMBL3229435

> <chembl_pref_name>
None

$$$$

     RDKit          2D

 10 10  0  0  0  0  0  0  0  0999 V2000
    2.3383   -1.3500    0.0000 N   0  0  0  0  0  0  0  0  0  0  0  0
    1.2990   -0.7500    0.0000 C   0  0  0  0  0  0  0  0  0  0  0  0
    1.2990    0.7500    0.0000 C   0  0  0  0  0  0  0  0  0  0  0  0
    0.0000    1.5000    0.0000 N   0  0  0  0  0  0  0  0  0  0  0  0
   -1.2990    0.7500    0.0000 C   0  0  0  0  0  0  0  0  0  0  0  0
   -1.2990   -0.7500    0.0000 C   0  0  0  0  0  0  0  0  0  0  0  0
    0.0000   -1.5000    0.0000 C   0  0  0  0  0  0  0  0  0  0  0  0
    2.5972    1.5031    0.0000 C   0  0  0  0  0  0  0  0  0  0  0  0
    3.6375    0.9049    0.0000 O   0  0  0  0  0  0  0  0  0  0  0  0
    2.5955    2.7031    0.0000 O   0  0  0  0  0  0  0  0  0  0  0  0
  1  2  1  0
  2  3  2  0
  3  4  1  0
  4  5  2  0
  5  6  1  0
  6  7  2  0
  2  7  1  0
  3  8  1  0
  8  9  1  0
  8 10  2  0
M  END

> <chembl_id>
CHEMBL3617319

> <chembl_pref_name>
None

$$$$

     RDKit          2D

  9  9  0  0  0  0  0  0  0  0999 V2000
   -0.0958   -3.4042    0.0000 C   0  0  0  0  0  0  0  0  0  0  0  0
   -0.6125   -3.1042    0.0000 C   0  0  0  0  0  0  0  0  0  0  0  0
    0.9417   -3.3917    0.0000 N   0  0  0  0  0  0  0  0  0  0  0  0
    0.4250   -3.1000    0.0000 C   0  0  0  0  0  0  0  0  0  0  0  0
   -0.6208   -2.5042    0.0000 C   0  0  0  0  0  0  0  0  0  0  0  0
   -1.1333   -3.4042    0.0000 C   0  0  0  0  0  0  0  0  0  0  0  0
   -0.0958   -4.0042    0.0000 C   0  0  0  0  0  0  0  0  0  0  0  0
   -1.1333   -4.0042    0.0000 C   0  0  0  0  0  0  0  0  0  0  0  0
   -0.6125   -4.3042    0.0000 C   0  0  0  0  0  0  0  0  0  0  0  0
  2  1  2  0
  3  4  1  0
  4  1  1  0
  5  2  1  0
  6  2  1  0
  7  1  1  0
  8  9  1  0
  9  7  2  0
  6  8  2  0
M  END

> <chembl_id>
CHEMBL268246

> <chembl_pref_name>
None

$$$$

     RDKit          2D

  9  9  0  0  0  0  0  0  0  0999 V2000
    1.2990   -0.7500    0.0000 C   0  0  0  0  0  0  0  0  0  0  0  0
    1.2990    0.7500    0.0000 C   0  0  0  0  0  0  0  0  0  0  0  0
    0.0000    1.5000    0.0000 C   0  0  0  0  0  0  0  0  0  0  0  0
   -1.2990    0.7500    0.0000 C   0  0  0  0  0  0  0  0  0  0  0  0
   -1.2990   -0.7500    0.0000 N   0  0  0  0  0  0  0  0  0  0  0  0
    0.0000   -1.5000    0.0000 C   0  0  0  0  0  0  0  0  0  0  0  0
    2.5973   -1.5031    0.0000 C   0  0  0  0  0  0  0  0  0  0  0  0
    2.5951   -3.0039    0.0000 N   0  0  0  0  0  0  0  0  0  0  0  0
    3.6331   -3.6060    0.0000 O   0  0  0  0  0  0  0  0  0  0  0  0
  1  2  2  0
  2  3  1  0
  3  4  2  0
  4  5  1  0
  5  6  2  0
  6  1  1  0
  1  7  1  0
  7  8  2  0
  8  9  1  0
M  END

> <chembl_id>
CHEMBL3632666

> <chembl_pref_name>
None

$$$$

     RDKit          2D

 10 10  0  0  0  0  0  0  0  0999 V2000
   -1.2740   -1.4828    0.0000 C   0  0  0  0  0  0  0  0  0  0  0  0
   -0.7730   -0.6174    0.0000 C   0  0  0  0  0  0  0  0  0  0  0  0
   -0.2740   -1.4840    0.0000 O   0  0  0  0  0  0  0  0  0  0  0  0
   -1.6384   -0.1164    0.0000 C   0  0  0  0  0  0  0  0  0  0  0  0
   -2.5050   -0.6154    0.0000 N   0  0  0  0  0  0  0  0  0  0  0  0
    0.0936   -0.1184    0.0000 C   0  0  0  0  0  0  0  0  0  0  0  0
    0.1992    0.8758    0.0000 C   0  0  0  0  0  0  0  0  0  0  0  0
    1.1776    1.0828    0.0000 C   0  0  0  0  0  0  0  0  0  0  0  0
    1.6766    0.2162    0.0000 C   0  0  0  0  0  0  0  0  0  0  0  0
    1.0066   -0.5262    0.0000 O   0  0  0  0  0  0  0  0  0  0  0  0
  1  2  1  0
  2  3  1  0
  2  4  1  0
  4  5  1  0
  2  6  1  0
  6  7  2  0
  7  8  1  0
  8  9  2  0
  9 10  1  0
 10  6  1  0
M  END

> <chembl_id>
CHEMBL4533378

> <chembl_pref_name>
None

$$$$

     RDKit          2D

 10 10  0  0  0  0  0  0  0  0999 V2000
   -3.6326    0.4730    0.0000 N   0  0  0  0  0  0  0  0  0  0  0  0
   -2.7684   -0.0300    0.0000 C   0  0  0  0  0  0  0  0  0  0  0  0
   -1.9006    0.4668    0.0000 C   0  0  0  0  0  0  0  0  0  0  0  0
   -1.0364   -0.0362    0.0000 C   0  0  0  0  0  0  0  0  0  0  0  0
   -1.0400   -1.0362    0.0000 N   0  0  0  0  0  0  0  0  0  0  0  0
   -0.1758   -1.5394    0.0000 C   0  0  0  0  0  0  0  0  0  0  0  0
    0.6920   -1.0424    0.0000 C   0  0  0  0  0  0  0  0  0  0  0  0
    0.6956   -0.0424    0.0000 C   0  0  0  0  0  0  0  0  0  0  0  0
   -0.1686    0.4606    0.0000 C   0  0  0  0  0  0  0  0  0  0  0  0
   -0.1650    1.4606    0.0000 F   0  0  0  0  0  0  0  0  0  0  0  0
  1  2  1  0
  2  3  1  0
  3  4  1  0
  4  5  2  0
  5  6  1  0
  6  7  2  0
  7  8  1  0
  8  9  2  0
  9 10  1  0
  9  4  1  0
M  END

> <chembl_id>
CHEMBL4514857

> <chembl_pref_name>
None

$$$$
 
     RDKit          2D

  9  9  0  0  0  0  0  0  0  0999 V2000
   44.2342  -20.4917    0.0000 C   0  0  0  0  0  0  0  0  0  0  0  0
   44.2331  -21.3112    0.0000 C   0  0  0  0  0  0  0  0  0  0  0  0
   44.9411  -21.7202    0.0000 C   0  0  0  0  0  0  0  0  0  0  0  0
   45.6508  -21.3107    0.0000 C   0  0  0  0  0  0  0  0  0  0  0  0
   45.6480  -20.4881    0.0000 C   0  0  0  0  0  0  0  0  0  0  0  0
   44.9393  -20.0828    0.0000 C   0  0  0  0  0  0  0  0  0  0  0  0
   46.3541  -20.0768    0.0000 C   0  0  0  0  0  0  0  0  0  0  0  0
   46.3510  -19.2596    0.0000 O   0  0  0  0  0  0  0  0  0  0  0  0
   43.5264  -20.0832    0.0000 C   0  0  0  0  0  0  0  0  0  0  0  0
  1  2  2  0
  2  3  1  0
  3  4  2  0
  4  5  1  0
  5  6  2  0
  6  1  1  0
  5  7  1  0
  7  8  2  0
  1  9  1  0
M  END

> <chembl_id>
CHEMBL4475423

> <chembl_pref_name>
None

$$$$

     RDKit          2D

  9  9  0  0  0  0  0  0  0  0999 V2000
   -0.6698    1.6282    0.0000 C   0  0  0  0  0  0  0  0  0  0  0  0
   -0.2124    0.7390    0.0000 C   0  0  0  0  0  0  0  0  0  0  0  0
    0.7758    0.5862    0.0000 C   0  0  0  0  0  0  0  0  0  0  0  0
    0.9358   -0.4008    0.0000 C   0  0  0  0  0  0  0  0  0  0  0  0
    1.8286   -0.8516    0.0000 C   0  0  0  0  0  0  0  0  0  0  0  0
    1.8844   -1.8500    0.0000 N   0  0  0  0  0  0  0  0  0  0  0  0
    2.6652   -0.3040    0.0000 O   0  0  0  0  0  0  0  0  0  0  0  0
    0.0466   -0.8582    0.0000 N   0  0  0  0  0  0  0  0  0  0  0  0
   -0.6632   -0.1538    0.0000 N   0  0  0  0  0  0  0  0  0  0  0  0
  1  2  1  0
  2  3  2  0
  3  4  1  0
  4  5  1  0
  5  6  1  0
  5  7  2  0
  4  8  2  0
  8  9  1  0
  9  2  1  0
M  END

> <chembl_id>
CHEMBL4528378

> <chembl_pref_name>
None

$$$$

     RDKit          2D

 10 10  0  0  0  0  0  0  0  0999 V2000
   -3.5170   -0.2112    0.0000 N   0  0  0  0  0  0  0  0  0  0  0  0
   -2.6492   -0.7080    0.0000 C   0  0  0  0  0  0  0  0  0  0  0  0
   -1.7848   -0.2050    0.0000 C   0  0  0  0  0  0  0  0  0  0  0  0
   -0.9170   -0.7018    0.0000 O   0  0  0  0  0  0  0  0  0  0  0  0
   -0.0528   -0.1988    0.0000 C   0  0  0  0  0  0  0  0  0  0  0  0
    0.8150   -0.6956    0.0000 C   0  0  0  0  0  0  0  0  0  0  0  0
    1.6792   -0.1926    0.0000 C   0  0  0  0  0  0  0  0  0  0  0  0
    1.6756    0.8074    0.0000 C   0  0  0  0  0  0  0  0  0  0  0  0
    0.8078    1.3044    0.0000 N   0  0  0  0  0  0  0  0  0  0  0  0
   -0.0566    0.8012    0.0000 C   0  0  0  0  0  0  0  0  0  0  0  0
  1  2  1  0
  2  3  1  0
  3  4  1  0
  4  5  1  0
  5  6  2  0
  6  7  1  0
  7  8  2  0
  8  9  1  0
  9 10  2  0
 10  5  1  0
M  END

> <chembl_id>
CHEMBL4542011

> <chembl_pref_name>
None

$$$$

     RDKit          2D

 10 10  0  0  0  0  0  0  0  0999 V2000
    4.0860   -3.9250    0.0000 C   0  0  0  0  0  0  0  0  0  0  0  0
    4.0860   -4.7422    0.0000 C   0  0  0  0  0  0  0  0  0  0  0  0
    4.7912   -5.1467    0.0000 N   0  0  0  0  0  0  0  0  0  0  0  0
    5.4965   -4.7422    0.0000 C   0  0  0  0  0  0  0  0  0  0  0  0
    5.4965   -3.9250    0.0000 C   0  0  0  0  0  0  0  0  0  0  0  0
    4.7912   -3.5123    0.0000 C   0  0  0  0  0  0  0  0  0  0  0  0
    3.3788   -5.1518    0.0000 N   0  0  0  0  0  0  0  0  0  0  0  0
    6.2065   -5.1511    0.0000 C   0  0  0  0  0  0  0  0  0  0  0  0
    6.2053   -5.9683    0.0000 O   0  0  0  0  0  0  0  0  0  0  0  0
    6.9148   -4.7435    0.0000 O   0  0  0  0  0  0  0  0  0  0  0  0
  1  2  2  0
  1  6  1  0
  2  3  1  0
  3  4  2  0
  4  5  1  0
  5  6  2  0
  2  7  1  0
  8  9  1  0
  8 10  2  0
  4  8  1  0
M  END

> <chembl_id>
CHEMBL3322863

> <chembl_pref_name>
None

$$$$

     RDKit          2D

 10 10  0  0  0  0  0  0  0  0999 V2000
   -3.6326    0.4730    0.0000 N   0  0  0  0  0  0  0  0  0  0  0  0
   -2.7684   -0.0300    0.0000 C   0  0  0  0  0  0  0  0  0  0  0  0
   -1.9006    0.4668    0.0000 C   0  0  0  0  0  0  0  0  0  0  0  0
   -1.0364   -0.0362    0.0000 N   0  0  0  0  0  0  0  0  0  0  0  0
   -1.0400   -1.0362    0.0000 C   0  0  0  0  0  0  0  0  0  0  0  0
   -0.1758   -1.5394    0.0000 C   0  0  0  0  0  0  0  0  0  0  0  0
    0.6920   -1.0424    0.0000 C   0  0  0  0  0  0  0  0  0  0  0  0
    0.6956   -0.0424    0.0000 C   0  0  0  0  0  0  0  0  0  0  0  0
   -0.1686    0.4606    0.0000 C   0  0  0  0  0  0  0  0  0  0  0  0
   -0.1650    1.4606    0.0000 O   0  0  0  0  0  0  0  0  0  0  0  0
  1  2  1  0
  2  3  1  0
  3  4  1  0
  4  5  1  0
  5  6  2  0
  6  7  1  0
  7  8  2  0
  8  9  1  0
  9 10  2  0
  9  4  1  0
M  END

> <chembl_id>
CHEMBL4578665

> <chembl_pref_name>
None

$$$$

     RDKit          2D

  9  9  0  0  0  0  0  0  0  0999 V2000
    0.7486    1.3254    0.0000 C   0  0  0  0  0  0  0  0  0  0  0  0
    0.7550    0.3256    0.0000 C   0  0  0  0  0  0  0  0  0  0  0  0
    1.6242   -0.1690    0.0000 C   0  0  0  0  0  0  0  0  0  0  0  0
    1.6306   -1.1688    0.0000 N   0  0  0  0  0  0  0  0  0  0  0  0
    0.7678   -1.6744    0.0000 C   0  0  0  0  0  0  0  0  0  0  0  0
   -0.1014   -1.1800    0.0000 C   0  0  0  0  0  0  0  0  0  0  0  0
   -0.1078   -0.1800    0.0000 C   0  0  0  0  0  0  0  0  0  0  0  0
   -0.9770    0.3144    0.0000 C   0  0  0  0  0  0  0  0  0  0  0  0
   -1.8398   -0.1912    0.0000 N   0  0  0  0  0  0  0  0  0  0  0  0
  1  2  1  0
  2  3  2  0
  3  4  1  0
  4  5  2  0
  5  6  1  0
  6  7  2  0
  7  8  1  0
  8  9  1  0
  7  2  1  0
M  END

> <chembl_id>
CHEMBL4528948

> <chembl_pref_name>
None

$$$$

     RDKit          2D

  9  9  0  0  0  0  0  0  0  0999 V2000
   -2.6638   -0.6644    0.0000 C   0  0  0  0  0  0  0  0  0  0  0  0
   -1.7972   -0.1654    0.0000 C   0  0  0  0  0  0  0  0  0  0  0  0
   -1.7958    0.8346    0.0000 O   0  0  0  0  0  0  0  0  0  0  0  0
   -0.9318   -0.6664    0.0000 C   0  0  0  0  0  0  0  0  0  0  0  0
   -0.0652   -0.1674    0.0000 N   0  0  0  0  0  0  0  0  0  0  0  0
    0.0404    0.8268    0.0000 C   0  0  0  0  0  0  0  0  0  0  0  0
    1.0188    1.0338    0.0000 C   0  0  0  0  0  0  0  0  0  0  0  0
    1.5178    0.1672    0.0000 C   0  0  0  0  0  0  0  0  0  0  0  0
    0.8480   -0.5752    0.0000 N   0  0  0  0  0  0  0  0  0  0  0  0
  1  2  1  0
  2  3  1  0
  2  4  1  0
  4  5  1  0
  5  6  1  0
  6  7  2  0
  7  8  1  0
  8  9  2  0
  9  5  1  0
M  END

> <chembl_id>
CHEMBL4542851

> <chembl_pref_name>
None

$$$$

     RDKit          2D

 10 10  0  0  0  0  0  0  0  0999 V2000
    0.6844    2.4484    0.0000 C   0  0  0  0  0  0  0  0  0  0  0  0
    0.6824    1.4484    0.0000 N   0  0  0  0  0  0  0  0  0  0  0  0
   -0.1846    0.9502    0.0000 C   0  0  0  0  0  0  0  0  0  0  0  0
   -1.0496    1.4518    0.0000 C   0  0  0  0  0  0  0  0  0  0  0  0
   -0.1868   -0.0498    0.0000 C   0  0  0  0  0  0  0  0  0  0  0  0
   -1.0538   -0.5480    0.0000 C   0  0  0  0  0  0  0  0  0  0  0  0
   -1.0558   -1.5480    0.0000 C   0  0  0  0  0  0  0  0  0  0  0  0
   -0.1908   -2.0498    0.0000 C   0  0  0  0  0  0  0  0  0  0  0  0
    0.6762   -1.5516    0.0000 N   0  0  0  0  0  0  0  0  0  0  0  0
    0.6784   -0.5516    0.0000 C   0  0  0  0  0  0  0  0  0  0  0  0
  1  2  1  0
  2  3  1  0
  3  4  1  0
  3  5  1  0
  5  6  2  0
  6  7  1  0
  7  8  2  0
  8  9  1  0
  9 10  2  0
 10  5  1  0
M  END

> <chembl_id>
CHEMBL4585985

> <chembl_pref_name>
None

$$$$

     RDKit          2D

  8  8  0  0  0  0  0  0  0  0999 V2000
   -1.7408    0.0484    0.0000 C   0  0  0  0  0  0  0  0  0  0  0  0
   -0.8728    0.5450    0.0000 C   0  0  0  0  0  0  0  0  0  0  0  0
   -0.8688    1.5448    0.0000 O   0  0  0  0  0  0  0  0  0  0  0  0
   -0.0088    0.0416    0.0000 C   0  0  0  0  0  0  0  0  0  0  0  0
    0.0918   -0.9534    0.0000 N   0  0  0  0  0  0  0  0  0  0  0  0
    1.0692   -1.1652    0.0000 N   0  0  0  0  0  0  0  0  0  0  0  0
    1.5726   -0.3010    0.0000 C   0  0  0  0  0  0  0  0  0  0  0  0
    0.9064    0.4446    0.0000 N   0  0  0  0  0  0  0  0  0  0  0  0
  1  2  1  0
  2  3  1  0
  2  4  1  0
  4  5  2  0
  5  6  1  0
  6  7  2  0
  7  8  1  0
  8  4  1  0
M  END

> <chembl_id>
CHEMBL4515440

> <chembl_pref_name>
None

$$$$

     RDKit          2D

  9  9  0  0  0  0  0  0  0  0999 V2000
   -2.9288    0.2836    0.0000 C   0  0  0  0  0  0  0  0  0  0  0  0
   -2.0636   -0.2174    0.0000 C   0  0  0  0  0  0  0  0  0  0  0  0
   -1.1970    0.2816    0.0000 C   0  0  0  0  0  0  0  0  0  0  0  0
   -1.0914    1.2760    0.0000 N   0  0  0  0  0  0  0  0  0  0  0  0
   -0.1130    1.4828    0.0000 N   0  0  0  0  0  0  0  0  0  0  0  0
    0.3860    0.6162    0.0000 C   0  0  0  0  0  0  0  0  0  0  0  0
    1.3804    0.5106    0.0000 C   0  0  0  0  0  0  0  0  0  0  0  0
    1.9692    1.3188    0.0000 N   0  0  0  0  0  0  0  0  0  0  0  0
   -0.2838   -0.1262    0.0000 O   0  0  0  0  0  0  0  0  0  0  0  0
  1  2  1  0
  2  3  1  0
  3  4  2  0
  4  5  1  0
  5  6  2  0
  6  7  1  0
  7  8  1  0
  6  9  1  0
  9  3  1  0
M  END

> <chembl_id>
CHEMBL4592993

> <chembl_pref_name>
None

$$$$

     RDKit          2D

 11 11  0  0  0  0  0  0  0  0999 V2000
   -1.2144   -1.6576    0.0000 C   0  0  0  0  0  0  0  0  0  0  0  0
   -0.3474   -1.1594    0.0000 C   0  0  0  0  0  0  0  0  0  0  0  0
    0.5176   -1.6612    0.0000 C   0  0  0  0  0  0  0  0  0  0  0  0
    1.3846   -1.1628    0.0000 C   0  0  0  0  0  0  0  0  0  0  0  0
    1.3866   -0.1628    0.0000 C   0  0  0  0  0  0  0  0  0  0  0  0
    0.5216    0.3388    0.0000 C   0  0  0  0  0  0  0  0  0  0  0  0
    0.5236    1.3388    0.0000 C   0  0  0  0  0  0  0  0  0  0  0  0
    0.0254    2.2058    0.0000 C   0  0  0  0  0  0  0  0  0  0  0  0
    1.3906    1.8370    0.0000 C   0  0  0  0  0  0  0  0  0  0  0  0
   -0.4764    1.3408    0.0000 N   0  0  0  0  0  0  0  0  0  0  0  0
   -0.3454   -0.1594    0.0000 C   0  0  0  0  0  0  0  0  0  0  0  0
  1  2  1  0
  2  3  2  0
  3  4  1  0
  4  5  2  0
  5  6  1  0
  6  7  1  0
  7  8  1  0
  7  9  1  0
  7 10  1  0
  6 11  2  0
 11  2  1  0
M  END

> <chembl_id>
CHEMBL4526481

> <chembl_pref_name>
None

$$$$

     RDKit          2D

 10 10  0  0  0  0  0  0  0  0999 V2000
    2.5951   -3.0039    0.0000 C   0  0  0  0  0  0  0  0  0  0  0  0
    3.6331   -3.6060    0.0000 N   0  0  0  0  0  0  0  0  0  0  0  0
    2.5973   -1.5031    0.0000 O   0  0  0  0  0  0  0  0  0  0  0  0
    1.5548   -3.6021    0.0000 N   0  0  0  0  0  0  0  0  0  0  0  0
    1.2990   -0.7500    0.0000 C   0  0  0  0  0  0  0  0  0  0  0  0
    1.2990    0.7500    0.0000 C   0  0  0  0  0  0  0  0  0  0  0  0
    0.0000    1.5000    0.0000 C   0  0  0  0  0  0  0  0  0  0  0  0
   -1.2990    0.7500    0.0000 C   0  0  0  0  0  0  0  0  0  0  0  0
   -1.2990   -0.7500    0.0000 C   0  0  0  0  0  0  0  0  0  0  0  0
    0.0000   -1.5000    0.0000 C   0  0  0  0  0  0  0  0  0  0  0  0
  1  2  2  0
  1  3  1  0
  1  4  1  0
  3  5  1  0
  5  6  2  0
  6  7  1  0
  7  8  2  0
  8  9  1  0
  9 10  2  0
 10  5  1  0
M  END

> <chembl_id>
CHEMBL3809823

> <chembl_pref_name>
None

$$$$

     RDKit          2D

  9  9  0  0  0  0  0  0  0  0999 V2000
    9.9810   -9.5724    0.0000 N   0  0  0  0  0  0  0  0  0  0  0  0
    9.9881  -12.0436    0.0000 C   0  0  0  0  0  0  0  0  0  0  0  0
    9.2645  -11.6304    0.0000 C   0  0  0  0  0  0  0  0  0  0  0  0
    9.9920  -12.8662    0.0000 O   0  0  0  0  0  0  0  0  0  0  0  0
    9.9823  -10.3952    0.0000 C   0  0  0  0  0  0  0  0  0  0  0  0
   10.6930  -10.7994    0.0000 C   0  0  0  0  0  0  0  0  0  0  0  0
    9.2636  -10.8022    0.0000 C   0  0  0  0  0  0  0  0  0  0  0  0
   10.6979  -11.6244    0.0000 C   0  0  0  0  0  0  0  0  0  0  0  0
   11.4036  -10.3830    0.0000 C   0  0  0  0  0  0  0  0  0  0  0  0
  3  7  1  0
  2  3  2  0
  5  6  1  0
  5  1  1  0
  8  2  1  0
  6  8  2  0
  7  5  2  0
  2  4  1  0
  6  9  1  0
M  END

> <chembl_id>
CHEMBL3092390

> <chembl_pref_name>
None

$$$$

     RDKit          2D

  8  8  0  0  0  0  0  0  0  0999 V2000
    2.0020   -2.3060    0.0000 N   0  0  0  0  0  0  0  0  0  0  0  0
    2.6942   -1.1600    0.0000 C   0  0  0  0  0  0  0  0  0  0  0  0
    2.0020   -0.0140    0.0000 C   0  0  0  0  0  0  0  0  0  0  0  0
    0.6923   -2.3060    0.0000 C   0  0  0  0  0  0  0  0  0  0  0  0
    0.6923   -0.0140    0.0000 C   0  0  0  0  0  0  0  0  0  0  0  0
    4.0320   -1.1600    0.0000 C   0  0  0  0  0  0  0  0  0  0  0  0
    0.0000   -1.1600    0.0000 C   0  0  0  0  0  0  0  0  0  0  0  0
    4.6775    0.0000    0.0000 C   0  0  0  0  0  0  0  0  0  0  0  0
  1  2  1  0
  1  4  2  0
  2  3  2  0
  2  6  1  0
  3  5  1  0
  4  7  1  0
  5  7  2  0
  6  8  2  0
M  END

> <chembl_id>
CHEMBL2134875

> <chembl_pref_name>
None

$$$$

     RDKit          2D

  9  9  0  0  0  0  0  0  0  0999 V2000
   -0.3487   -0.5887    0.0000 C   0  0  0  0  0  0  0  0  0  0  0  0
   -1.0632   -1.0012    0.0000 O   0  0  0  0  0  0  0  0  0  0  0  0
   -0.3487    0.2363    0.0000 C   0  0  0  0  0  0  0  0  0  0  0  0
   -1.0632    0.6488    0.0000 O   0  0  0  0  0  0  0  0  0  0  0  0
    0.3658    0.6487    0.0000 C   0  0  0  0  0  0  0  0  0  0  0  0
    0.3658    1.4737    0.0000 C   0  0  0  0  0  0  0  0  0  0  0  0
    1.0802    0.2362    0.0000 C   0  0  0  0  0  0  0  0  0  0  0  0
    1.0802   -0.5888    0.0000 C   0  0  0  0  0  0  0  0  0  0  0  0
    0.3658   -1.0013    0.0000 C   0  0  0  0  0  0  0  0  0  0  0  0
  1  2  1  0
  1  3  2  0
  1  9  1  0
  3  4  1  0
  3  5  1  0
  5  6  1  0
  5  7  2  0
  7  8  1  0
  8  9  2  0
M  END

> <chembl_id>
CHEMBL1173328

> <chembl_pref_name>
None

$$$$

     RDKit          2D

  6  6  0  0  0  0  0  0  0  0999 V2000
   13.6707   -5.5055    0.0000 N   0  0  0  0  0  0  0  0  0  0  0  0
   13.9221   -6.2899    0.0000 N   0  0  0  0  0  0  0  0  0  0  0  0
   13.2564   -6.7719    0.0000 C   0  0  0  0  0  0  0  0  0  0  0  0
   12.5906   -6.2899    0.0000 C   0  0  0  0  0  0  0  0  0  0  0  0
   12.8463   -5.5055    0.0000 C   0  0  0  0  0  0  0  0  0  0  0  0
   13.2564   -7.6000    0.0000 C   0  0  0  0  0  0  0  0  0  0  0  0
  1  2  1  0
  2  3  2  0
  3  4  1  0
  4  5  2  0
  1  5  1  0
  3  6  1  0
M  END

> <chembl_id>
CHEMBL3275944

> <chembl_pref_name>
None

$$$$

     RDKit          2D

 10 10  0  0  0  0  0  0  0  0999 V2000
    0.7806    2.9538    0.0000 C   0  0  0  0  0  0  0  0  0  0  0  0
   -0.0864    2.4556    0.0000 O   0  0  0  0  0  0  0  0  0  0  0  0
   -0.0884    1.4556    0.0000 C   0  0  0  0  0  0  0  0  0  0  0  0
    0.7766    0.9540    0.0000 C   0  0  0  0  0  0  0  0  0  0  0  0
    0.7746   -0.0460    0.0000 C   0  0  0  0  0  0  0  0  0  0  0  0
   -0.0926   -0.5442    0.0000 C   0  0  0  0  0  0  0  0  0  0  0  0
   -0.9576   -0.0426    0.0000 C   0  0  0  0  0  0  0  0  0  0  0  0
   -1.8246   -0.5408    0.0000 C   0  0  0  0  0  0  0  0  0  0  0  0
   -1.8266   -1.5408    0.0000 O   0  0  0  0  0  0  0  0  0  0  0  0
   -0.9556    0.9574    0.0000 N   0  0  0  0  0  0  0  0  0  0  0  0
  1  2  1  0
  2  3  1  0
  3  4  2  0
  4  5  1  0
  5  6  2  0
  6  7  1  0
  7  8  1  0
  8  9  1  0
  7 10  2  0
 10  3  1  0
M  END

> <chembl_id>
CHEMBL4563278

> <chembl_pref_name>
None

$$$$

     RDKit          2D

 10 10  0  0  0  0  0  0  0  0999 V2000
   -3.0252  -23.5370    0.0000 C   0  0  0  0  0  0  0  0  0  0  0  0
   -3.0264  -24.3640    0.0000 C   0  0  0  0  0  0  0  0  0  0  0  0
   -2.3120  -24.7765    0.0000 C   0  0  0  0  0  0  0  0  0  0  0  0
   -1.5957  -24.3635    0.0000 C   0  0  0  0  0  0  0  0  0  0  0  0
   -1.5986  -23.5334    0.0000 C   0  0  0  0  0  0  0  0  0  0  0  0
   -2.3138  -23.1242    0.0000 C   0  0  0  0  0  0  0  0  0  0  0  0
   -3.7396  -23.1247    0.0000 N   0  0  0  0  0  0  0  0  0  0  0  0
   -3.7410  -24.7756    0.0000 N   0  0  0  0  0  0  0  0  0  0  0  0
   -2.3122  -25.6013    0.0000 F   0  0  0  0  0  0  0  0  0  0  0  0
   -0.8809  -24.7746    0.0000 F   0  0  0  0  0  0  0  0  0  0  0  0
  2  3  1  0
  5  6  2  0
  6  1  1  0
  1  2  2  0
  1  7  1  0
  3  4  2  0
  2  8  1  0
  3  9  1  0
  4  5  1  0
  4 10  1  0
M  END

> <chembl_id>
CHEMBL1650254

> <chembl_pref_name>
None

$$$$
 
     RDKit          2D

  7  7  0  0  0  0  0  0  0  0999 V2000
   29.8068  -14.0739    0.0000 C   0  0  0  0  0  0  0  0  0  0  0  0
   30.6240  -14.0739    0.0000 N   0  0  0  0  0  0  0  0  0  0  0  0
   30.8784  -13.2972    0.0000 C   0  0  0  0  0  0  0  0  0  0  0  0
   30.2154  -12.8150    0.0000 O   0  0  0  0  0  0  0  0  0  0  0  0
   29.5567  -13.2972    0.0000 C   0  0  0  0  0  0  0  0  0  0  0  0
   29.3269  -14.7330    0.0000 C   0  0  0  0  0  0  0  0  0  0  0  0
   28.8457  -15.3935    0.0000 N   0  0  0  0  0  0  0  0  0  0  0  0
  1  2  1  0
  2  3  2  0
  3  4  1  0
  4  5  1  0
  5  1  2  0
  6  7  3  0
  1  6  1  0
M  END

> <chembl_id>
CHEMBL4566067

> <chembl_pref_name>
None

$$$$

     RDKit          2D

 10 10  0  0  0  0  0  0  0  0999 V2000
    5.8634   -3.1449    0.0000 C   0  0  0  0  0  0  0  0  0  0  0  0
    5.8622   -3.9644    0.0000 C   0  0  0  0  0  0  0  0  0  0  0  0
    6.5703   -4.3734    0.0000 C   0  0  0  0  0  0  0  0  0  0  0  0
    7.2799   -3.9640    0.0000 C   0  0  0  0  0  0  0  0  0  0  0  0
    7.2771   -3.1413    0.0000 C   0  0  0  0  0  0  0  0  0  0  0  0
    6.5685   -2.7360    0.0000 C   0  0  0  0  0  0  0  0  0  0  0  0
    6.5660   -1.9189    0.0000 C   0  0  0  0  0  0  0  0  0  0  0  0
    5.8571   -1.5124    0.0000 O   0  0  0  0  0  0  0  0  0  0  0  0
    5.1556   -2.7365    0.0000 O   0  0  0  0  0  0  0  0  0  0  0  0
    7.9833   -2.7301    0.0000 O   0  0  0  0  0  0  0  0  0  0  0  0
  1  2  2  0
  2  3  1  0
  3  4  2  0
  4  5  1  0
  5  6  2  0
  6  1  1  0
  6  7  1  0
  7  8  2  0
  1  9  1  0
  5 10  1  0
M  END

> <chembl_id>
CHEMBL3274337

> <chembl_pref_name>
None

$$$$

     RDKit          2D

  8  8  0  0  0  0  0  0  0  0999 V2000
    1.3542   -2.7375    0.0000 C   0  0  0  0  0  0  0  0  0  0  0  0
    2.1875   -2.7375    0.0000 C   0  0  0  0  0  0  0  0  0  0  0  0
    2.4417   -1.9417    0.0000 N   0  0  0  0  0  0  0  0  0  0  0  0
    1.1000   -1.9417    0.0000 C   0  0  0  0  0  0  0  0  0  0  0  0
    1.7750   -1.4625    0.0000 N   0  0  0  0  0  0  0  0  0  0  0  0
    0.9375   -3.4500    0.0000 N   0  0  0  0  0  0  0  0  0  0  0  0
    2.6667   -3.4042    0.0000 O   0  0  0  0  0  0  0  0  0  0  0  0
    0.3167   -1.6917    0.0000 C   0  0  0  0  0  0  0  0  0  0  0  0
  2  1  2  0
  3  2  1  0
  4  1  1  0
  5  4  2  0
  6  1  1  0
  7  2  1  0
  8  4  1  0
  3  5  1  0
M  END

> <chembl_id>
CHEMBL302983

> <chembl_pref_name>
None

$$$$

     RDKit          2D

 11 11  0  0  1  0  0  0  0  0999 V2000
    2.1535    0.0000    0.0000 O   0  0  0  0  0  0  0  0  0  0  0  0
    3.5714   -0.8357    0.0000 N   0  0  0  0  0  0  0  0  0  0  0  0
    1.4250   -1.2571    0.0000 C   0  0  0  0  0  0  0  0  0  0  0  0
    2.1535   -0.8357    0.0000 C   0  0  0  0  0  0  0  0  0  0  0  0
    2.8642   -1.2357    0.0000 C   0  0  0  0  0  0  0  0  0  0  0  0
    1.4250   -2.0821    0.0000 C   0  0  0  0  0  0  0  0  0  0  0  0
    0.7071   -0.8357    0.0000 C   0  0  0  0  0  0  0  0  0  0  0  0
    0.7071   -2.4928    0.0000 C   0  0  0  0  0  0  0  0  0  0  0  0
    0.0000   -1.2571    0.0000 C   0  0  0  0  0  0  0  0  0  0  0  0
    0.0000   -2.0821    0.0000 C   0  0  0  0  0  0  0  0  0  0  0  0
    2.8642   -2.0750    0.0000 C   0  0  0  0  0  0  0  0  0  0  0  0
  1  4  2  0
  5  2  1  6
  3  4  1  0
  3  6  2  0
  3  7  1  0
  4  5  1  0
  5 11  1  0
  6  8  1  0
  7  9  2  0
  8 10  2  0
  9 10  1  0
M  END

> <chembl_id>
CHEMBL3301840

> <chembl_pref_name>
None

$$$$

     RDKit          2D

 10 10  0  0  0  0  0  0  0  0999 V2000
    2.1614   -1.5314    0.0000 C   0  0  0  0  0  0  0  0  0  0  0  0
    1.2108   -1.2214    0.0000 C   0  0  0  0  0  0  0  0  0  0  0  0
    1.0040   -0.2430    0.0000 N   0  0  0  0  0  0  0  0  0  0  0  0
    1.6740    0.4994    0.0000 C   0  0  0  0  0  0  0  0  0  0  0  0
    1.1750    1.3660    0.0000 C   0  0  0  0  0  0  0  0  0  0  0  0
    0.1966    1.1590    0.0000 N   0  0  0  0  0  0  0  0  0  0  0  0
    0.0908    0.1648    0.0000 C   0  0  0  0  0  0  0  0  0  0  0  0
   -0.7756   -0.3342    0.0000 C   0  0  0  0  0  0  0  0  0  0  0  0
   -1.6410    0.1668    0.0000 C   0  0  0  0  0  0  0  0  0  0  0  0
   -0.7770   -1.3342    0.0000 N   0  0  0  0  0  0  0  0  0  0  0  0
  1  2  1  0
  2  3  1  0
  3  4  1  0
  4  5  2  0
  5  6  1  0
  6  7  2  0
  7  8  1  0
  8  9  1  0
  8 10  1  0
  7  3  1  0
M  END

> <chembl_id>
CHEMBL4540666

> <chembl_pref_name>
None

$$$$

     RDKit          2D

 10 10  0  0  0  0  0  0  0  0999 V2000
   -2.4160   -0.8152    0.0000 C   0  0  0  0  0  0  0  0  0  0  0  0
   -1.5496   -0.3160    0.0000 C   0  0  0  0  0  0  0  0  0  0  0  0
   -0.6840   -0.8166    0.0000 C   0  0  0  0  0  0  0  0  0  0  0  0
    0.1824   -0.3174    0.0000 C   0  0  0  0  0  0  0  0  0  0  0  0
    0.1832    0.6826    0.0000 C   0  0  0  0  0  0  0  0  0  0  0  0
    1.0496    1.1820    0.0000 C   0  0  0  0  0  0  0  0  0  0  0  0
    1.0504    2.1820    0.0000 C   0  0  0  0  0  0  0  0  0  0  0  0
    1.9152    0.6812    0.0000 O   0  0  0  0  0  0  0  0  0  0  0  0
   -0.6824    1.1834    0.0000 C   0  0  0  0  0  0  0  0  0  0  0  0
   -1.5488    0.6840    0.0000 C   0  0  0  0  0  0  0  0  0  0  0  0
  1  2  1  0
  2  3  2  0
  3  4  1  0
  4  5  2  0
  5  6  1  0
  6  7  1  1
  6  8  1  0
  5  9  1  0
  9 10  2  0
 10  2  1  0
M  END

> <chembl_id>
CHEMBL4517133

> <chembl_pref_name>
None

$$$$

     RDKit          2D

 10 10  0  0  0  0  0  0  0  0999 V2000
    0.6844    2.4484    0.0000 C   0  0  0  0  0  0  0  0  0  0  0  0
    0.6824    1.4484    0.0000 N   0  0  0  0  0  0  0  0  0  0  0  0
   -0.1846    0.9502    0.0000 C   0  0  0  0  0  0  0  0  0  0  0  0
   -1.0496    1.4518    0.0000 C   0  0  0  0  0  0  0  0  0  0  0  0
   -0.1868   -0.0498    0.0000 C   0  0  0  0  0  0  0  0  0  0  0  0
   -1.0538   -0.5480    0.0000 C   0  0  0  0  0  0  0  0  0  0  0  0
   -1.0558   -1.5480    0.0000 C   0  0  0  0  0  0  0  0  0  0  0  0
   -0.1908   -2.0498    0.0000 N   0  0  0  0  0  0  0  0  0  0  0  0
    0.6762   -1.5516    0.0000 C   0  0  0  0  0  0  0  0  0  0  0  0
    0.6784   -0.5516    0.0000 C   0  0  0  0  0  0  0  0  0  0  0  0
  1  2  1  0
  2  3  1  0
  3  4  1  0
  3  5  1  0
  5  6  2  0
  6  7  1  0
  7  8  2  0
  8  9  1  0
  9 10  2  0
 10  5  1  0
M  END

> <chembl_id>
CHEMBL4576636

> <chembl_pref_name>
None

$$$$

     RDKit          2D

 10 10  0  0  0  0  0  0  0  0999 V2000
   -4.4986   -0.1056    0.0000 C   0  0  0  0  0  0  0  0  0  0  0  0
   -3.6332   -0.6066    0.0000 O   0  0  0  0  0  0  0  0  0  0  0  0
   -2.7666   -0.1076    0.0000 C   0  0  0  0  0  0  0  0  0  0  0  0
   -1.9012   -0.6086    0.0000 C   0  0  0  0  0  0  0  0  0  0  0  0
   -1.0348   -0.1096    0.0000 N   0  0  0  0  0  0  0  0  0  0  0  0
   -0.9290    0.8848    0.0000 C   0  0  0  0  0  0  0  0  0  0  0  0
    0.0494    1.0916    0.0000 C   0  0  0  0  0  0  0  0  0  0  0  0
    0.5482    0.2250    0.0000 C   0  0  0  0  0  0  0  0  0  0  0  0
    1.5426    0.1194    0.0000 N   0  0  0  0  0  0  0  0  0  0  0  0
   -0.1216   -0.5174    0.0000 N   0  0  0  0  0  0  0  0  0  0  0  0
  1  2  1  0
  2  3  1  0
  3  4  1  0
  4  5  1  0
  5  6  1  0
  6  7  2  0
  7  8  1  0
  8  9  1  0
  8 10  2  0
 10  5  1  0
M  END

> <chembl_id>
CHEMBL4552103

> <chembl_pref_name>
None

$$$$
 
     RDKit          2D

  9  9  0  0  0  0  0  0  0  0999 V2000
   17.2320  -21.2293    0.0000 C   0  0  0  0  0  0  0  0  0  0  0  0
   17.2309  -22.0566    0.0000 C   0  0  0  0  0  0  0  0  0  0  0  0
   17.9457  -22.4695    0.0000 N   0  0  0  0  0  0  0  0  0  0  0  0
   18.6621  -22.0562    0.0000 C   0  0  0  0  0  0  0  0  0  0  0  0
   18.6592  -21.2256    0.0000 N   0  0  0  0  0  0  0  0  0  0  0  0
   17.9438  -20.8165    0.0000 C   0  0  0  0  0  0  0  0  0  0  0  0
   17.9414  -19.9914    0.0000 N   0  0  0  0  0  0  0  0  0  0  0  0
   16.5174  -20.8170    0.0000 C   0  0  0  0  0  0  0  0  0  0  0  0
   16.5172  -19.9919    0.0000 O   0  0  0  0  0  0  0  0  0  0  0  0
  1  2  2  0
  2  3  1  0
  3  4  2  0
  4  5  1  0
  5  6  2  0
  6  1  1  0
  6  7  1  0
  1  8  1  0
  8  9  2  0
M  END

> <chembl_id>
CHEMBL4443626

> <chembl_pref_name>
None

$$$$

     RDKit          2D

  8  8  0  0  0  0  0  0  0  0999 V2000
    8.8680   -3.7834    0.0000 N   0  0  0  0  0  0  0  0  0  0  0  0
    9.1205   -4.5705    0.0000 N   0  0  0  0  0  0  0  0  0  0  0  0
    8.4522   -5.0543    0.0000 C   0  0  0  0  0  0  0  0  0  0  0  0
    7.7840   -4.5705    0.0000 C   0  0  0  0  0  0  0  0  0  0  0  0
    8.0406   -3.7834    0.0000 C   0  0  0  0  0  0  0  0  0  0  0  0
    8.4522   -5.8776    0.0000 C   0  0  0  0  0  0  0  0  0  0  0  0
    7.7392   -6.2893    0.0000 O   0  0  0  0  0  0  0  0  0  0  0  0
    9.1652   -6.2893    0.0000 C   0  0  0  0  0  0  0  0  0  0  0  0
  1  2  1  0
  2  3  2  0
  3  4  1  0
  4  5  2  0
  1  5  1  0
  3  6  1  0
  6  7  2  0
  6  8  1  0
M  END

> <chembl_id>
CHEMBL3275951

> <chembl_pref_name>
None

$$$$

     RDKit          2D

 10 10  0  0  0  0  0  0  0  0999 V2000
   -1.7772   -2.1090    0.0000 C   0  0  0  0  0  0  0  0  0  0  0  0
   -1.7764   -1.1090    0.0000 C   0  0  0  0  0  0  0  0  0  0  0  0
   -2.6420   -0.6082    0.0000 O   0  0  0  0  0  0  0  0  0  0  0  0
   -0.9100   -0.6096    0.0000 C   0  0  0  0  0  0  0  0  0  0  0  0
   -0.0444   -1.1102    0.0000 C   0  0  0  0  0  0  0  0  0  0  0  0
    0.8220   -0.6110    0.0000 C   0  0  0  0  0  0  0  0  0  0  0  0
    0.8228    0.3890    0.0000 N   0  0  0  0  0  0  0  0  0  0  0  0
   -0.0428    0.8898    0.0000 C   0  0  0  0  0  0  0  0  0  0  0  0
   -0.0420    1.8898    0.0000 O   0  0  0  0  0  0  0  0  0  0  0  0
   -0.9092    0.3904    0.0000 C   0  0  0  0  0  0  0  0  0  0  0  0
  1  2  1  0
  2  3  2  0
  2  4  1  0
  4  5  1  0
  5  6  2  0
  6  7  1  0
  7  8  1  0
  8  9  2  0
  8 10  1  0
 10  4  2  0
M  END

> <chembl_id>
CHEMBL4553619

> <chembl_pref_name>
None

$$$$

     RDKit          2D

 11 12  0  0  0  0  0  0  0  0999 V2000
   -2.0272    1.9510    0.0000 C   0  0  0  0  0  0  0  0  0  0  0  0
   -1.2834    1.2824    0.0000 C   0  0  0  0  0  0  0  0  0  0  0  0
   -2.0262    0.6126    0.0000 N   0  0  0  0  0  0  0  0  0  0  0  0
   -0.6962    2.0920    0.0000 C   0  0  0  0  0  0  0  0  0  0  0  0
    0.2550    1.7836    0.0000 C   0  0  0  0  0  0  0  0  0  0  0  0
    1.1206    2.2844    0.0000 C   0  0  0  0  0  0  0  0  0  0  0  0
    1.9870    1.7850    0.0000 C   0  0  0  0  0  0  0  0  0  0  0  0
    1.9878    0.7850    0.0000 C   0  0  0  0  0  0  0  0  0  0  0  0
    1.1222    0.2844    0.0000 C   0  0  0  0  0  0  0  0  0  0  0  0
    0.2558    0.7836    0.0000 C   0  0  0  0  0  0  0  0  0  0  0  0
   -0.6950    0.4740    0.0000 C   0  0  0  0  0  0  0  0  0  0  0  0
  1  2  1  0
  2  3  1  0
  2  4  1  0
  4  5  1  0
  5  6  2  0
  6  7  1  0
  7  8  2  0
  8  9  1  0
  9 10  2  0
 10 11  1  0
 11  2  1  0
 10  5  1  0
M  END

> <chembl_id>
CHEMBL4578938

> <chembl_pref_name>
None

$$$$

     RDKit          2D

 10 10  0  0  0  0  0  0  0  0999 V2000
    0.2926   -1.7844    0.0000 C   0  0  0  0  0  0  0  0  0  0  0  0
   -0.5744   -1.2862    0.0000 N   0  0  0  0  0  0  0  0  0  0  0  0
   -1.4394   -1.7880    0.0000 C   0  0  0  0  0  0  0  0  0  0  0  0
   -0.5764   -0.2862    0.0000 C   0  0  0  0  0  0  0  0  0  0  0  0
    0.2886    0.2154    0.0000 N   0  0  0  0  0  0  0  0  0  0  0  0
    0.2866    1.2154    0.0000 C   0  0  0  0  0  0  0  0  0  0  0  0
   -0.5804    1.7138    0.0000 C   0  0  0  0  0  0  0  0  0  0  0  0
   -1.4454    1.2120    0.0000 C   0  0  0  0  0  0  0  0  0  0  0  0
   -1.4434    0.2120    0.0000 C   0  0  0  0  0  0  0  0  0  0  0  0
   -2.3084   -0.2898    0.0000 N   0  0  0  0  0  0  0  0  0  0  0  0
  1  2  1  0
  2  3  1  0
  2  4  1  0
  4  5  2  0
  5  6  1  0
  6  7  2  0
  7  8  1  0
  8  9  2  0
  9 10  1  0
  9  4  1  0
M  END

> <chembl_id>
CHEMBL4546287

> <chembl_pref_name>
None

$$$$

     RDKit          2D

  9  9  0  0  0  0  0  0  0  0999 V2000
    0.9110    1.3758    0.0000 C   0  0  0  0  0  0  0  0  0  0  0  0
    0.9096    0.3758    0.0000 C   0  0  0  0  0  0  0  0  0  0  0  0
    1.7750   -0.1252    0.0000 C   0  0  0  0  0  0  0  0  0  0  0  0
    0.0432   -0.1232    0.0000 C   0  0  0  0  0  0  0  0  0  0  0  0
   -0.8700    0.2844    0.0000 C   0  0  0  0  0  0  0  0  0  0  0  0
   -1.5400   -0.4578    0.0000 C   0  0  0  0  0  0  0  0  0  0  0  0
   -2.5342   -0.3522    0.0000 N   0  0  0  0  0  0  0  0  0  0  0  0
   -1.0410   -1.3244    0.0000 N   0  0  0  0  0  0  0  0  0  0  0  0
   -0.0626   -1.1176    0.0000 N   0  0  0  0  0  0  0  0  0  0  0  0
  1  2  1  0
  2  3  1  0
  2  4  1  0
  4  5  1  0
  5  6  2  0
  6  7  1  0
  6  8  1  0
  8  9  1  0
  9  4  2  0
M  END

> <chembl_id>
CHEMBL4586875

> <chembl_pref_name>
None

$$$$

     RDKit          2D

  9  9  0  0  0  0  0  0  0  0999 V2000
   -2.5588    0.6012    0.0000 C   0  0  0  0  0  0  0  0  0  0  0  0
   -1.6922    0.1022    0.0000 N   0  0  0  0  0  0  0  0  0  0  0  0
   -0.8268    0.6032    0.0000 C   0  0  0  0  0  0  0  0  0  0  0  0
   -0.8280    1.6032    0.0000 C   0  0  0  0  0  0  0  0  0  0  0  0
    0.0398    0.1042    0.0000 C   0  0  0  0  0  0  0  0  0  0  0  0
    0.1454   -0.8902    0.0000 C   0  0  0  0  0  0  0  0  0  0  0  0
    1.1238   -1.0970    0.0000 C   0  0  0  0  0  0  0  0  0  0  0  0
    1.6228   -0.2304    0.0000 C   0  0  0  0  0  0  0  0  0  0  0  0
    0.9528    0.5120    0.0000 O   0  0  0  0  0  0  0  0  0  0  0  0
  1  2  1  0
  2  3  1  0
  3  4  1  0
  3  5  1  0
  5  6  2  0
  6  7  1  0
  7  8  2  0
  8  9  1  0
  9  5  1  0
M  END

> <chembl_id>
CHEMBL4531677

> <chembl_pref_name>
None

$$$$

     RDKit          2D

  9  9  0  0  0  0  0  0  0  0999 V2000
   -2.5588    0.6012    0.0000 C   0  0  0  0  0  0  0  0  0  0  0  0
   -1.6922    0.1022    0.0000 C   0  0  0  0  0  0  0  0  0  0  0  0
   -0.8268    0.6032    0.0000 C   0  0  0  0  0  0  0  0  0  0  0  0
   -0.8280    1.6032    0.0000 N   0  0  0  0  0  0  0  0  0  0  0  0
    0.0398    0.1042    0.0000 C   0  0  0  0  0  0  0  0  0  0  0  0
    0.9528    0.5120    0.0000 N   0  0  0  0  0  0  0  0  0  0  0  0
    1.6228   -0.2304    0.0000 C   0  0  0  0  0  0  0  0  0  0  0  0
    1.1238   -1.0970    0.0000 C   0  0  0  0  0  0  0  0  0  0  0  0
    0.1454   -0.8902    0.0000 N   0  0  0  0  0  0  0  0  0  0  0  0
  1  2  1  0
  2  3  1  0
  3  4  1  0
  3  5  1  0
  5  6  2  0
  6  7  1  0
  7  8  2  0
  8  9  1  0
  9  5  1  0
M  END

> <chembl_id>
CHEMBL4585827

> <chembl_pref_name>
None

$$$$

     RDKit          2D

 10 10  0  0  0  0  0  0  0  0999 V2000
   19.8436  -21.9366    0.0000 N   0  0  0  0  0  0  0  0  0  0  0  0
   19.8424  -22.7640    0.0000 C   0  0  0  0  0  0  0  0  0  0  0  0
   20.5573  -23.1768    0.0000 N   0  0  0  0  0  0  0  0  0  0  0  0
   21.2736  -22.7635    0.0000 C   0  0  0  0  0  0  0  0  0  0  0  0
   21.2708  -21.9329    0.0000 N   0  0  0  0  0  0  0  0  0  0  0  0
   20.5555  -21.5239    0.0000 C   0  0  0  0  0  0  0  0  0  0  0  0
   20.5529  -20.6989    0.0000 N   0  0  0  0  0  0  0  0  0  0  0  0
   21.9888  -23.1748    0.0000 C   0  0  0  0  0  0  0  0  0  0  0  0
   19.1277  -23.1759    0.0000 C   0  0  0  0  0  0  0  0  0  0  0  0
   19.8373  -20.2885    0.0000 C   0  0  0  0  0  0  0  0  0  0  0  0
  1  2  2  0
  2  3  1  0
  3  4  2  0
  4  5  1  0
  5  6  2  0
  6  1  1  0
  6  7  1  0
  4  8  1  0
  2  9  1  0
  7 10  1  0
M  END

> <chembl_id>
CHEMBL2271910

> <chembl_pref_name>
None

$$$$

     RDKit          2D

 10 11  0  0  0  0  0  0  0  0999 V2000
   17.1059   -1.9356    0.0000 C   0  0  0  0  0  0  0  0  0  0  0  0
   17.1048   -2.7552    0.0000 C   0  0  0  0  0  0  0  0  0  0  0  0
   17.8128   -3.1641    0.0000 C   0  0  0  0  0  0  0  0  0  0  0  0
   17.8111   -1.5268    0.0000 C   0  0  0  0  0  0  0  0  0  0  0  0
   18.5197   -1.9320    0.0000 C   0  0  0  0  0  0  0  0  0  0  0  0
   18.5199   -2.7552    0.0000 C   0  0  0  0  0  0  0  0  0  0  0  0
   19.3029   -3.0094    0.0000 N   0  0  0  0  0  0  0  0  0  0  0  0
   19.7866   -2.3432    0.0000 N   0  0  0  0  0  0  0  0  0  0  0  0
   19.3025   -1.6775    0.0000 C   0  0  0  0  0  0  0  0  0  0  0  0
   16.3981   -1.5272    0.0000 N   0  0  0  0  0  0  0  0  0  0  0  0
  1  2  2  0
  2  3  1  0
  3  6  2  0
  5  4  2  0
  4  1  1  0
  5  6  1  0
  6  7  1  0
  7  8  2  0
  8  9  1  0
  9  5  1  0
  1 10  1  0
M  END

> <chembl_id>
CHEMBL3974697

> <chembl_pref_name>
None

$$$$

     RDKit          2D

  9  9  0  0  0  0  0  0  0  0999 V2000
    2.4050   -0.2540    0.0000 N   0  0  0  0  0  0  0  0  0  0  0  0
    1.5422    0.2514    0.0000 C   0  0  0  0  0  0  0  0  0  0  0  0
    1.5486    1.2514    0.0000 C   0  0  0  0  0  0  0  0  0  0  0  0
    0.6858    1.7570    0.0000 N   0  0  0  0  0  0  0  0  0  0  0  0
   -0.1834    1.2626    0.0000 C   0  0  0  0  0  0  0  0  0  0  0  0
   -0.1898    0.2626    0.0000 C   0  0  0  0  0  0  0  0  0  0  0  0
   -1.0590   -0.2318    0.0000 C   0  0  0  0  0  0  0  0  0  0  0  0
   -1.9218    0.2738    0.0000 O   0  0  0  0  0  0  0  0  0  0  0  0
    0.6730   -0.2430    0.0000 N   0  0  0  0  0  0  0  0  0  0  0  0
  1  2  1  0
  2  3  2  0
  3  4  1  0
  4  5  2  0
  5  6  1  0
  6  7  1  0
  7  8  1  0
  6  9  2  0
  9  2  1  0
M  END

> <chembl_id>
CHEMBL4593976

> <chembl_pref_name>
None

$$$$

     RDKit          2D

  9  9  0  0  0  0  0  0  0  0999 V2000
   13.2763  -19.7926    0.0000 C   0  0  0  0  0  0  0  0  0  0  0  0
   12.4513  -19.7926    0.0000 C   0  0  0  0  0  0  0  0  0  0  0  0
   12.0388  -20.5071    0.0000 C   0  0  0  0  0  0  0  0  0  0  0  0
   11.2138  -20.5071    0.0000 C   0  0  0  0  0  0  0  0  0  0  0  0
   10.8013  -19.7926    0.0000 C   0  0  0  0  0  0  0  0  0  0  0  0
   11.2138  -19.0782    0.0000 C   0  0  0  0  0  0  0  0  0  0  0  0
   12.0388  -19.0782    0.0000 C   0  0  0  0  0  0  0  0  0  0  0  0
   13.6888  -19.0782    0.0000 O   0  0  0  0  0  0  0  0  0  0  0  0
   13.6888  -20.5071    0.0000 Cl  0  0  0  0  0  0  0  0  0  0  0  0
  1  2  1  0
  2  3  1  0
  3  4  2  0
  4  5  1  0
  5  6  2  0
  6  7  1  0
  2  7  2  0
  1  8  2  0
  1  9  1  0
M  END

> <chembl_id>
CHEMBL2260719

> <chembl_pref_name>
BENZOYL CHLORIDE

$$$$

     RDKit          2D

 10 10  0  0  0  0  0  0  0  0999 V2000
    7.5001   -2.8990    0.0000 N   0  0  0  0  0  0  0  0  0  0  0  0
    8.1642   -3.3723    0.0000 N   0  0  0  0  0  0  0  0  0  0  0  0
    8.8196   -2.8869    0.0000 C   0  0  0  0  0  0  0  0  0  0  0  0
    8.5605   -2.1136    0.0000 C   0  0  0  0  0  0  0  0  0  0  0  0
    7.7450   -2.1211    0.0000 C   0  0  0  0  0  0  0  0  0  0  0  0
    8.1716   -4.1894    0.0000 C   0  0  0  0  0  0  0  0  0  0  0  0
    9.6025   -3.1334    0.0000 C   0  0  0  0  0  0  0  0  0  0  0  0
    9.7796   -3.9312    0.0000 O   0  0  0  0  0  0  0  0  0  0  0  0
   10.2047   -2.5811    0.0000 O   0  0  0  0  0  0  0  0  0  0  0  0
    7.2587   -1.4644    0.0000 C   0  0  0  0  0  0  0  0  0  0  0  0
  1  2  1  0
  2  3  1  0
  3  4  2  0
  4  5  1  0
  5  1  2  0
  2  6  1  0
  7  8  1  0
  7  9  2  0
  3  7  1  0
  5 10  1  0
M  END

> <chembl_id>
CHEMBL2287220

> <chembl_pref_name>
None

$$$$

     RDKit          2D

  8  8  0  0  0  0  0  0  0  0999 V2000
   12.2842   -9.9220    0.0000 N   0  0  0  0  0  0  0  0  0  0  0  0
   12.7410  -10.6110    0.0000 N   0  0  0  0  0  0  0  0  0  0  0  0
   12.2294  -11.2582    0.0000 C   0  0  0  0  0  0  0  0  0  0  0  0
   11.4548  -10.9742    0.0000 C   0  0  0  0  0  0  0  0  0  0  0  0
   11.4879  -10.1469    0.0000 C   0  0  0  0  0  0  0  0  0  0  0  0
   10.7706  -11.4321    0.0000 C   0  0  0  0  0  0  0  0  0  0  0  0
   10.0319  -11.0685    0.0000 C   0  0  0  0  0  0  0  0  0  0  0  0
    9.3477  -11.5264    0.0000 O   0  0  0  0  0  0  0  0  0  0  0  0
  1  2  1  0
  2  3  2  0
  3  4  1  0
  4  5  2  0
  1  5  1  0
  4  6  1  0
  6  7  1  0
  7  8  1  0
M  END

> <chembl_id>
CHEMBL3276274

> <chembl_pref_name>
None

$$$$
 
     RDKit          2D

  8  8  0  0  0  0  0  0  0  0999 V2000
    4.3941   -9.7952    0.0000 C   0  0  0  0  0  0  0  0  0  0  0  0
    4.3930  -10.6225    0.0000 C   0  0  0  0  0  0  0  0  0  0  0  0
    5.1077  -11.0354    0.0000 N   0  0  0  0  0  0  0  0  0  0  0  0
    5.8242  -10.6220    0.0000 C   0  0  0  0  0  0  0  0  0  0  0  0
    5.8212   -9.7916    0.0000 C   0  0  0  0  0  0  0  0  0  0  0  0
    5.1059   -9.3824    0.0000 C   0  0  0  0  0  0  0  0  0  0  0  0
    6.5392  -11.0333    0.0000 Cl  0  0  0  0  0  0  0  0  0  0  0  0
    6.5341   -9.3764    0.0000 C   0  0  0  0  0  0  0  0  0  0  0  0
  1  2  2  0
  2  3  1  0
  3  4  2  0
  4  5  1  0
  5  6  2  0
  6  1  1  0
  4  7  1  0
  5  8  1  0
M  END

> <chembl_id>
CHEMBL4648536

> <chembl_pref_name>
None

$$$$

     RDKit          2D

 11 11  0  0  0  0  0  0  0  0999 V2000
    3.2134   -0.9338    0.0000 C   0  0  0  0  0  0  0  0  0  0  0  0
    2.3478   -1.4346    0.0000 O   0  0  0  0  0  0  0  0  0  0  0  0
    1.4814   -0.9352    0.0000 C   0  0  0  0  0  0  0  0  0  0  0  0
    0.6158   -1.4360    0.0000 C   0  0  0  0  0  0  0  0  0  0  0  0
   -0.2506   -0.9366    0.0000 C   0  0  0  0  0  0  0  0  0  0  0  0
   -1.1162   -1.4374    0.0000 C   0  0  0  0  0  0  0  0  0  0  0  0
   -1.9818   -1.9380    0.0000 N   0  0  0  0  0  0  0  0  0  0  0  0
   -0.2514    0.0634    0.0000 C   0  0  0  0  0  0  0  0  0  0  0  0
    0.6142    0.5640    0.0000 N   0  0  0  0  0  0  0  0  0  0  0  0
    1.4806    0.0648    0.0000 C   0  0  0  0  0  0  0  0  0  0  0  0
    2.3462    0.5654    0.0000 C   0  0  0  0  0  0  0  0  0  0  0  0
  1  2  1  0
  2  3  1  0
  3  4  2  0
  4  5  1  0
  5  6  1  0
  6  7  3  0
  5  8  2  0
  8  9  1  0
  9 10  2  0
 10 11  1  0
 10  3  1  0
M  END

> <chembl_id>
CHEMBL4540834

> <chembl_pref_name>
None

$$$$

     RDKit          2D

  8  8  0  0  0  0  0  0  0  0999 V2000
   -1.7408   -0.0118    0.0000 C   0  0  0  0  0  0  0  0  0  0  0  0
   -0.8754    0.4892    0.0000 C   0  0  0  0  0  0  0  0  0  0  0  0
   -0.8766    1.4892    0.0000 C   0  0  0  0  0  0  0  0  0  0  0  0
   -0.0088   -0.0098    0.0000 C   0  0  0  0  0  0  0  0  0  0  0  0
    0.9042    0.3980    0.0000 N   0  0  0  0  0  0  0  0  0  0  0  0
    1.5742   -0.3444    0.0000 N   0  0  0  0  0  0  0  0  0  0  0  0
    1.0752   -1.2110    0.0000 C   0  0  0  0  0  0  0  0  0  0  0  0
    0.0968   -1.0042    0.0000 N   0  0  0  0  0  0  0  0  0  0  0  0
  1  2  1  0
  2  3  1  0
  2  4  1  0
  4  5  2  0
  5  6  1  0
  6  7  2  0
  7  8  1  0
  8  4  1  0
M  END

> <chembl_id>
CHEMBL4529184

> <chembl_pref_name>
None

$$$$

     RDKit          2D

  8  8  0  0  0  0  0  0  0  0999 V2000
   -2.8662    0.1686    0.0000 C   0  0  0  0  0  0  0  0  0  0  0  0
   -2.0010   -0.3324    0.0000 C   0  0  0  0  0  0  0  0  0  0  0  0
   -1.1344    0.1666    0.0000 C   0  0  0  0  0  0  0  0  0  0  0  0
   -1.0286    1.1610    0.0000 N   0  0  0  0  0  0  0  0  0  0  0  0
   -0.0504    1.3678    0.0000 N   0  0  0  0  0  0  0  0  0  0  0  0
    0.4486    0.5012    0.0000 C   0  0  0  0  0  0  0  0  0  0  0  0
    1.4430    0.3956    0.0000 N   0  0  0  0  0  0  0  0  0  0  0  0
   -0.2212   -0.2412    0.0000 O   0  0  0  0  0  0  0  0  0  0  0  0
  1  2  1  0
  2  3  1  0
  3  4  2  0
  4  5  1  0
  5  6  2  0
  6  7  1  0
  6  8  1  0
  8  3  1  0
M  END

> <chembl_id>
CHEMBL4520233

> <chembl_pref_name>
None

$$$$

     RDKit          2D

  8  8  0  0  0  0  0  0  0  0999 V2000
    2.4480   -5.4101    0.0000 N   0  0  0  0  0  0  0  0  0  0  0  0
    3.1542   -4.9988    0.0000 C   0  0  0  0  0  0  0  0  0  0  0  0
    3.8618   -5.4081    0.0000 N   0  0  0  0  0  0  0  0  0  0  0  0
    4.5675   -4.9976    0.0000 C   0  0  0  0  0  0  0  0  0  0  0  0
    4.5649   -4.1795    0.0000 C   0  0  0  0  0  0  0  0  0  0  0  0
    3.8507   -3.7738    0.0000 N   0  0  0  0  0  0  0  0  0  0  0  0
    3.1479   -4.1867    0.0000 C   0  0  0  0  0  0  0  0  0  0  0  0
    5.2705   -3.7673    0.0000 C   0  0  0  0  0  0  0  0  0  0  0  0
  1  2  1  0
  2  3  2  0
  3  4  1  0
  4  5  2  0
  5  6  1  0
  6  7  2  0
  7  2  1  0
  5  8  1  0
M  END

> <chembl_id>
CHEMBL3219114

> <chembl_pref_name>
None

$$$$

     RDKit          2D

 11 12  0  0  0  0  0  0  0  0999 V2000
   -1.2964    1.4973    0.0000 N   0  0  0  0  0  0  0  0  0  0  0  0
   -2.6111    0.7486    0.0000 C   0  0  0  0  0  0  0  0  0  0  0  0
   -2.6111   -0.7486    0.0000 C   0  0  0  0  0  0  0  0  0  0  0  0
   -1.2964   -1.4973    0.0000 C   0  0  0  0  0  0  0  0  0  0  0  0
    0.0000   -0.7486    0.0000 C   0  0  0  0  0  0  0  0  0  0  0  0
    1.2964   -1.4973    0.0000 C   0  0  0  0  0  0  0  0  0  0  0  0
    2.5929   -0.7486    0.0000 C   0  0  0  0  0  0  0  0  0  0  0  0
    2.5929    0.7486    0.0000 C   0  0  0  0  0  0  0  0  0  0  0  0
    1.2964    1.4973    0.0000 C   0  0  0  0  0  0  0  0  0  0  0  0
    0.0000    0.7486    0.0000 C   0  0  0  0  0  0  0  0  0  0  0  0
    1.2964    2.6973    0.0000 O   0  0  0  0  0  0  0  0  0  0  0  0
  1  2  2  0
  2  3  1  0
  3  4  2  0
  4  5  1  0
  5  6  1  0
  6  7  1  0
  7  8  1  0
  8  9  1  0
  9 10  1  0
  1 10  1  0
  5 10  2  0
  9 11  2  0
M  END

> <chembl_id>
CHEMBL3585997

> <chembl_pref_name>
None

$$$$

     RDKit          2D

  8  8  0  0  0  0  0  0  0  0999 V2000
   -3.6396   -0.5864    0.0000 C   0  0  0  0  0  0  0  0  0  0  0  0
   -2.7730   -0.0874    0.0000 N   0  0  0  0  0  0  0  0  0  0  0  0
   -1.9076   -0.5882    0.0000 C   0  0  0  0  0  0  0  0  0  0  0  0
   -1.0412   -0.0892    0.0000 C   0  0  0  0  0  0  0  0  0  0  0  0
   -0.9354    0.9050    0.0000 C   0  0  0  0  0  0  0  0  0  0  0  0
    0.0430    1.1120    0.0000 S   0  0  0  0  0  0  0  0  0  0  0  0
    0.5418    0.2454    0.0000 C   0  0  0  0  0  0  0  0  0  0  0  0
   -0.1280   -0.4970    0.0000 N   0  0  0  0  0  0  0  0  0  0  0  0
  1  2  1  0
  2  3  1  0
  3  4  1  0
  4  5  2  0
  5  6  1  0
  6  7  1  0
  7  8  2  0
  8  4  1  0
M  END

> <chembl_id>
CHEMBL4516583

> <chembl_pref_name>
None

$$$$

     RDKit          2D

  8  8  0  0  0  0  0  0  0  0999 V2000
    1.4430    0.3956    0.0000 C   0  0  0  0  0  0  0  0  0  0  0  0
    0.4486    0.5012    0.0000 C   0  0  0  0  0  0  0  0  0  0  0  0
   -0.2212   -0.2412    0.0000 C   0  0  0  0  0  0  0  0  0  0  0  0
   -1.1344    0.1666    0.0000 C   0  0  0  0  0  0  0  0  0  0  0  0
   -2.0010   -0.3324    0.0000 C   0  0  0  0  0  0  0  0  0  0  0  0
   -2.8662    0.1686    0.0000 O   0  0  0  0  0  0  0  0  0  0  0  0
   -1.0286    1.1610    0.0000 N   0  0  0  0  0  0  0  0  0  0  0  0
   -0.0504    1.3678    0.0000 O   0  0  0  0  0  0  0  0  0  0  0  0
  1  2  1  0
  2  3  2  0
  3  4  1  0
  4  5  1  0
  5  6  1  0
  4  7  2  0
  7  8  1  0
  8  2  1  0
M  END

> <chembl_id>
CHEMBL4589520

> <chembl_pref_name>
None

$$$$

     RDKit          2D

  9 10  0  0  0  0  0  0  0  0999 V2000
    0.8168    1.4236    0.0000 N   0  0  0  0  0  0  0  0  0  0  0  0
    0.5070    0.4728    0.0000 C   0  0  0  0  0  0  0  0  0  0  0  0
    1.0942   -0.3366    0.0000 C   0  0  0  0  0  0  0  0  0  0  0  0
    0.5058   -1.1452    0.0000 C   0  0  0  0  0  0  0  0  0  0  0  0
   -0.4450   -0.8354    0.0000 N   0  0  0  0  0  0  0  0  0  0  0  0
   -1.3962   -1.1436    0.0000 C   0  0  0  0  0  0  0  0  0  0  0  0
   -1.9834   -0.3342    0.0000 N   0  0  0  0  0  0  0  0  0  0  0  0
   -1.3950    0.4744    0.0000 C   0  0  0  0  0  0  0  0  0  0  0  0
   -0.4442    0.1646    0.0000 C   0  0  0  0  0  0  0  0  0  0  0  0
  1  2  1  0
  2  3  1  0
  3  4  1  0
  4  5  1  0
  5  6  1  0
  6  7  2  0
  7  8  1  0
  8  9  2  0
  9  2  1  0
  9  5  1  0
M  END

> <chembl_id>
CHEMBL4556695

> <chembl_pref_name>
None

$$$$

     RDKit          2D

  8  8  0  0  0  0  0  0  0  0999 V2000
   38.0654   -9.2120    0.0000 N   0  0  0  0  0  0  0  0  0  0  0  0
   38.8826   -9.2120    0.0000 N   0  0  0  0  0  0  0  0  0  0  0  0
   39.1370   -8.4353    0.0000 C   0  0  0  0  0  0  0  0  0  0  0  0
   38.4740   -7.9532    0.0000 O   0  0  0  0  0  0  0  0  0  0  0  0
   37.8153   -8.4353    0.0000 C   0  0  0  0  0  0  0  0  0  0  0  0
   39.9145   -8.1838    0.0000 C   0  0  0  0  0  0  0  0  0  0  0  0
   37.0379   -8.1831    0.0000 C   0  0  0  0  0  0  0  0  0  0  0  0
   36.4309   -8.7302    0.0000 N   0  0  0  0  0  0  0  0  0  0  0  0
  1  2  1  0
  2  3  2  0
  3  4  1  0
  4  5  1  0
  5  1  2  0
  3  6  1  0
  5  7  1  0
  7  8  1  0
M  END

> <chembl_id>
CHEMBL4125857

> <chembl_pref_name>
None

$$$$

     RDKit          2D

 11 12  0  0  0  0  0  0  0  0999 V2000
    2.3493   -0.4654    0.0000 C   0  0  0  0  0  0  0  0  0  0  0  0
    3.1752   -0.4666    0.0000 C   0  0  0  0  0  0  0  0  0  0  0  0
    2.3457    0.9593    0.0000 C   0  0  0  0  0  0  0  0  0  0  0  0
    1.9373    0.2451    0.0000 C   0  0  0  0  0  0  0  0  0  0  0  0
    3.1747    0.9622    0.0000 C   0  0  0  0  0  0  0  0  0  0  0  0
    3.5868    0.2474    0.0000 C   0  0  0  0  0  0  0  0  0  0  0  0
    4.3938    0.4183    0.0000 O   0  0  0  0  0  0  0  0  0  0  0  0
    4.4807    1.2388    0.0000 C   0  0  0  0  0  0  0  0  0  0  0  0
    3.7272    1.5748    0.0000 C   0  0  0  0  0  0  0  0  0  0  0  0
    1.1095    0.2427    0.0000 C   0  0  0  0  0  0  0  0  0  0  0  0
    0.6936    0.9582    0.0000 O   0  0  0  0  0  0  0  0  0  0  0  0
  2  6  1  0
  5  3  1  0
  1  2  2  0
  3  4  2  0
  6  7  1  0
  7  8  1  0
  8  9  1  0
  9  5  1  0
  4  1  1  0
  4 10  1  0
  5  6  2  0
 10 11  2  0
M  END

> <chembl_id>
CHEMBL1650257

> <chembl_pref_name>
None

$$$$
 
     RDKit          2D

  7  7  0  0  0  0  0  0  0  0999 V2000
   22.8194  -10.7350    0.0000 N   0  0  0  0  0  0  0  0  0  0  0  0
   23.6366  -10.7350    0.0000 C   0  0  0  0  0  0  0  0  0  0  0  0
   23.8910   -9.9582    0.0000 C   0  0  0  0  0  0  0  0  0  0  0  0
   23.2280   -9.4761    0.0000 C   0  0  0  0  0  0  0  0  0  0  0  0
   22.5693   -9.9582    0.0000 N   0  0  0  0  0  0  0  0  0  0  0  0
   24.6685   -9.7068    0.0000 C   0  0  0  0  0  0  0  0  0  0  0  0
   25.4467   -9.4552    0.0000 C   0  0  0  0  0  0  0  0  0  0  0  0
  1  2  1  0
  2  3  2  0
  3  4  1  0
  4  5  2  0
  5  1  1  0
  3  6  1  0
  6  7  3  0
M  END

> <chembl_id>
CHEMBL4547378

> <chembl_pref_name>
None

$$$$

     RDKit          2D

 10 11  0  0  0  0  0  0  0  0999 V2000
    0.1800   -2.6580    0.0000 C   0  0  0  0  0  0  0  0  0  0  0  0
    0.2848   -1.6636    0.0000 N   0  0  0  0  0  0  0  0  0  0  0  0
   -0.4580   -0.9942    0.0000 C   0  0  0  0  0  0  0  0  0  0  0  0
   -0.0510   -0.0808    0.0000 C   0  0  0  0  0  0  0  0  0  0  0  0
   -0.5508    0.7854    0.0000 C   0  0  0  0  0  0  0  0  0  0  0  0
   -1.4164    1.2856    0.0000 C   0  0  0  0  0  0  0  0  0  0  0  0
   -0.5502    1.7854    0.0000 C   0  0  0  0  0  0  0  0  0  0  0  0
   -0.0502    2.6512    0.0000 N   0  0  0  0  0  0  0  0  0  0  0  0
    0.9434   -0.1856    0.0000 C   0  0  0  0  0  0  0  0  0  0  0  0
    1.1510   -1.1638    0.0000 N   0  0  0  0  0  0  0  0  0  0  0  0
  1  2  1  0
  2  3  1  0
  3  4  2  0
  5  4  1  6
  5  6  1  0
  6  7  1  0
  7  8  1  1
  4  9  1  0
  9 10  2  0
 10  2  1  0
  7  5  1  0
M  END

> <chembl_id>
CHEMBL4535595

> <chembl_pref_name>
None

$$$$

     RDKit          2D

  9  9  0  0  0  0  0  0  0  0999 V2000
    0.7500   -1.0323    0.0000 C   0  0  0  0  0  0  0  0  0  0  0  0
    1.2135    0.3943    0.0000 C   0  0  0  0  0  0  0  0  0  0  0  0
    0.0000    1.2760    0.0000 C   0  0  0  0  0  0  0  0  0  0  0  0
   -1.2135    0.3943    0.0000 S   0  0  0  0  0  0  0  0  0  0  0  0
   -0.7500   -1.0323    0.0000 C   0  0  0  0  0  0  0  0  0  0  0  0
   -1.4553   -2.0031    0.0000 C   0  0  0  0  0  0  0  0  0  0  0  0
   -0.0031    2.7742    0.0000 C   0  0  0  0  0  0  0  0  0  0  0  0
   -1.3040    3.5228    0.0000 N   0  0  0  0  0  0  0  0  0  0  0  0
   -1.3065    4.7228    0.0000 C   0  0  0  0  0  0  0  0  0  0  0  0
  1  2  1  0
  2  3  2  0
  3  4  1  0
  4  5  1  0
  5  1  2  0
  5  6  1  0
  3  7  1  0
  7  8  1  0
  8  9  1  0
M  END

> <chembl_id>
CHEMBL3781201

> <chembl_pref_name>
None

$$$$

     RDKit          2D

  9  9  0  0  0  0  0  0  0  0999 V2000
   -0.6698    1.6282    0.0000 C   0  0  0  0  0  0  0  0  0  0  0  0
   -0.2124    0.7390    0.0000 N   0  0  0  0  0  0  0  0  0  0  0  0
    0.7758    0.5862    0.0000 C   0  0  0  0  0  0  0  0  0  0  0  0
    0.9358   -0.4008    0.0000 C   0  0  0  0  0  0  0  0  0  0  0  0
    1.8286   -0.8516    0.0000 C   0  0  0  0  0  0  0  0  0  0  0  0
    1.8844   -1.8500    0.0000 N   0  0  0  0  0  0  0  0  0  0  0  0
    2.6652   -0.3040    0.0000 O   0  0  0  0  0  0  0  0  0  0  0  0
    0.0466   -0.8582    0.0000 N   0  0  0  0  0  0  0  0  0  0  0  0
   -0.6632   -0.1538    0.0000 N   0  0  0  0  0  0  0  0  0  0  0  0
  1  2  1  0
  2  3  1  0
  3  4  2  0
  4  5  1  0
  5  6  1  0
  5  7  2  0
  4  8  1  0
  8  9  2  0
  9  2  1  0
M  END

> <chembl_id>
CHEMBL4516664

> <chembl_pref_name>
None

$$$$

     RDKit          2D

 10 10  0  0  0  0  0  0  0  0999 V2000
   -1.7040    1.8358    0.0000 C   0  0  0  0  0  0  0  0  0  0  0  0
   -1.7032    0.8358    0.0000 C   0  0  0  0  0  0  0  0  0  0  0  0
   -2.5688    0.3352    0.0000 N   0  0  0  0  0  0  0  0  0  0  0  0
   -0.8368    0.3366    0.0000 C   0  0  0  0  0  0  0  0  0  0  0  0
    0.0288    0.8372    0.0000 N   0  0  0  0  0  0  0  0  0  0  0  0
    0.8952    0.3380    0.0000 C   0  0  0  0  0  0  0  0  0  0  0  0
    0.8960   -0.6620    0.0000 C   0  0  0  0  0  0  0  0  0  0  0  0
    0.0304   -1.1628    0.0000 C   0  0  0  0  0  0  0  0  0  0  0  0
   -0.8360   -0.6634    0.0000 C   0  0  0  0  0  0  0  0  0  0  0  0
   -1.7016   -1.1642    0.0000 F   0  0  0  0  0  0  0  0  0  0  0  0
  2  1  1  1
  2  3  1  0
  2  4  1  0
  4  5  2  0
  5  6  1  0
  6  7  2  0
  7  8  1  0
  8  9  2  0
  9 10  1  0
  9  4  1  0
M  END

> <chembl_id>
CHEMBL4552036

> <chembl_pref_name>
None

$$$$

     RDKit          2D

 11 12  0  0  0  0  0  0  0  0999 V2000
    1.4208    0.6868    0.0000 C   0  0  0  0  0  0  0  0  0  0  0  0
    0.5552    1.1876    0.0000 C   0  0  0  0  0  0  0  0  0  0  0  0
   -0.3112    0.6882    0.0000 C   0  0  0  0  0  0  0  0  0  0  0  0
   -0.3120   -0.3118    0.0000 C   0  0  0  0  0  0  0  0  0  0  0  0
    0.5536   -0.8124    0.0000 C   0  0  0  0  0  0  0  0  0  0  0  0
    1.4200   -0.3132    0.0000 N   0  0  0  0  0  0  0  0  0  0  0  0
   -1.0944   -0.9346    0.0000 N   0  0  0  0  0  0  0  0  0  0  0  0
   -2.0692   -0.7114    0.0000 C   0  0  0  0  0  0  0  0  0  0  0  0
   -2.5022    0.1900    0.0000 C   0  0  0  0  0  0  0  0  0  0  0  0
   -2.0678    1.0906    0.0000 C   0  0  0  0  0  0  0  0  0  0  0  0
   -1.0926    1.3122    0.0000 N   0  0  0  0  0  0  0  0  0  0  0  0
  1  2  2  0
  2  3  1  0
  3  4  2  0
  4  5  1  0
  5  6  2  0
  4  7  1  0
  7  8  1  0
  8  9  1  0
  9 10  1  0
 10 11  1  0
  6  1  1  0
 11  3  1  0
M  END

> <chembl_id>
CHEMBL4517716

> <chembl_pref_name>
None

$$$$

     RDKit          2D

 10 10  0  0  0  0  0  0  0  0999 V2000
    0.8350    1.4606    0.0000 C   0  0  0  0  0  0  0  0  0  0  0  0
    0.8314    0.4606    0.0000 C   0  0  0  0  0  0  0  0  0  0  0  0
    1.6956   -0.0424    0.0000 C   0  0  0  0  0  0  0  0  0  0  0  0
    1.6920   -1.0424    0.0000 C   0  0  0  0  0  0  0  0  0  0  0  0
    0.8242   -1.5394    0.0000 C   0  0  0  0  0  0  0  0  0  0  0  0
   -0.0400   -1.0362    0.0000 N   0  0  0  0  0  0  0  0  0  0  0  0
   -0.0364   -0.0362    0.0000 C   0  0  0  0  0  0  0  0  0  0  0  0
   -0.9006    0.4668    0.0000 C   0  0  0  0  0  0  0  0  0  0  0  0
   -1.7684   -0.0300    0.0000 C   0  0  0  0  0  0  0  0  0  0  0  0
   -2.6326    0.4730    0.0000 N   0  0  0  0  0  0  0  0  0  0  0  0
  1  2  1  0
  2  3  2  0
  3  4  1  0
  4  5  2  0
  5  6  1  0
  6  7  2  0
  7  8  1  0
  8  9  1  0
  9 10  1  0
  7  2  1  0
M  END

> <chembl_id>
CHEMBL4534600

> <chembl_pref_name>
None

$$$$
 
     RDKit          2D

  8  8  0  0  0  0  0  0  0  0999 V2000
   26.2529   -4.6069    0.0000 C   0  0  0  0  0  0  0  0  0  0  0  0
   26.2518   -5.4340    0.0000 C   0  0  0  0  0  0  0  0  0  0  0  0
   26.9664   -5.8467    0.0000 N   0  0  0  0  0  0  0  0  0  0  0  0
   27.6826   -5.4335    0.0000 C   0  0  0  0  0  0  0  0  0  0  0  0
   27.6797   -4.6033    0.0000 C   0  0  0  0  0  0  0  0  0  0  0  0
   26.9645   -4.1942    0.0000 C   0  0  0  0  0  0  0  0  0  0  0  0
   28.3975   -5.8447    0.0000 Cl  0  0  0  0  0  0  0  0  0  0  0  0
   28.3924   -4.1882    0.0000 Cl  0  0  0  0  0  0  0  0  0  0  0  0
  1  2  2  0
  2  3  1  0
  3  4  2  0
  4  5  1  0
  5  6  2  0
  6  1  1  0
  4  7  1  0
  5  8  1  0
M  END

> <chembl_id>
CHEMBL4635484

> <chembl_pref_name>
None

$$$$
 
     RDKit          2D

  8  8  0  0  0  0  0  0  0  0999 V2000
   10.5438   -5.0844    0.0000 C   0  0  0  0  0  0  0  0  0  0  0  0
   11.2536   -4.6737    0.0000 N   0  0  0  0  0  0  0  0  0  0  0  0
   11.2531   -3.8572    0.0000 C   0  0  0  0  0  0  0  0  0  0  0  0
   10.5444   -3.4486    0.0000 C   0  0  0  0  0  0  0  0  0  0  0  0
    9.8388   -4.6732    0.0000 C   0  0  0  0  0  0  0  0  0  0  0  0
    9.8357   -3.8582    0.0000 N   0  0  0  0  0  0  0  0  0  0  0  0
   10.5425   -5.9016    0.0000 C   0  0  0  0  0  0  0  0  0  0  0  0
    9.8341   -6.3090    0.0000 N   0  0  0  0  0  0  0  0  0  0  0  0
  1  2  2  0
  2  3  1  0
  3  4  2  0
  4  6  1  0
  5  1  1  0
  5  6  2  0
  1  7  1  0
  7  8  1  0
M  END

> <chembl_id>
CHEMBL4483332

> <chembl_pref_name>
None

$$$$

     RDKit          2D

  9  9  0  0  0  0  0  0  0  0999 V2000
   23.0245  -11.9220    0.0000 N   0  0  0  0  0  0  0  0  0  0  0  0
   23.7222  -12.3499    0.0000 C   0  0  0  0  0  0  0  0  0  0  0  0
   24.4380  -11.9607    0.0000 C   0  0  0  0  0  0  0  0  0  0  0  0
   25.1357  -12.3885    0.0000 C   0  0  0  0  0  0  0  0  0  0  0  0
   25.1133  -13.2054    0.0000 C   0  0  0  0  0  0  0  0  0  0  0  0
   24.3932  -13.5986    0.0000 C   0  0  0  0  0  0  0  0  0  0  0  0
   23.6998  -13.1667    0.0000 C   0  0  0  0  0  0  0  0  0  0  0  0
   25.8557  -11.9995    0.0000 C   0  0  0  0  0  0  0  0  0  0  0  0
   26.5715  -11.6103    0.0000 C   0  0  0  0  0  0  0  0  0  0  0  0
  1  2  1  0
  2  3  1  0
  3  4  2  0
  4  5  1  0
  5  6  2  0
  6  7  1  0
  2  7  2  0
  8  9  3  0
  4  8  1  0
M  END

> <chembl_id>
CHEMBL4212090

> <chembl_pref_name>
None

$$$$

     RDKit          2D

  8  8  0  0  0  0  0  0  0  0999 V2000
    1.4430    0.3956    0.0000 C   0  0  0  0  0  0  0  0  0  0  0  0
    0.4486    0.5012    0.0000 C   0  0  0  0  0  0  0  0  0  0  0  0
   -0.2212   -0.2412    0.0000 C   0  0  0  0  0  0  0  0  0  0  0  0
   -1.1344    0.1666    0.0000 C   0  0  0  0  0  0  0  0  0  0  0  0
   -2.0010   -0.3324    0.0000 C   0  0  0  0  0  0  0  0  0  0  0  0
   -2.8662    0.1686    0.0000 N   0  0  0  0  0  0  0  0  0  0  0  0
   -1.0286    1.1610    0.0000 N   0  0  0  0  0  0  0  0  0  0  0  0
   -0.0504    1.3678    0.0000 N   0  0  0  0  0  0  0  0  0  0  0  0
  1  2  1  0
  2  3  1  0
  3  4  2  0
  4  5  1  0
  5  6  1  0
  4  7  1  0
  7  8  1  0
  8  2  2  0
M  END

> <chembl_id>
CHEMBL4590820

> <chembl_pref_name>
None

$$$$

     RDKit          2D

 10 10  0  0  0  0  0  0  0  0999 V2000
    2.5814   -0.2382    0.0000 C   0  0  0  0  0  0  0  0  0  0  0  0
    1.5870   -0.3440    0.0000 N   0  0  0  0  0  0  0  0  0  0  0  0
    0.9172    0.3984    0.0000 C   0  0  0  0  0  0  0  0  0  0  0  0
    0.0040   -0.0094    0.0000 C   0  0  0  0  0  0  0  0  0  0  0  0
   -0.8626    0.4896    0.0000 C   0  0  0  0  0  0  0  0  0  0  0  0
   -0.8638    1.4896    0.0000 N   0  0  0  0  0  0  0  0  0  0  0  0
   -1.7278   -0.0112    0.0000 C   0  0  0  0  0  0  0  0  0  0  0  0
   -2.5944    0.4878    0.0000 O   0  0  0  0  0  0  0  0  0  0  0  0
    0.1098   -1.0036    0.0000 C   0  0  0  0  0  0  0  0  0  0  0  0
    1.0880   -1.2106    0.0000 N   0  0  0  0  0  0  0  0  0  0  0  0
  1  2  1  0
  2  3  1  0
  3  4  2  0
  4  5  1  0
  5  6  1  0
  5  7  1  0
  7  8  1  0
  4  9  1  0
  9 10  2  0
 10  2  1  0
M  END

> <chembl_id>
CHEMBL4561856

> <chembl_pref_name>
None

$$$$

     RDKit          2D

 10 10  0  0  0  0  0  0  0  0999 V2000
    2.9675  -14.2802    0.0000 C   0  0  0  0  0  0  0  0  0  0  0  0
    2.9675  -15.1015    0.0000 C   0  0  0  0  0  0  0  0  0  0  0  0
    3.6769  -15.5060    0.0000 N   0  0  0  0  0  0  0  0  0  0  0  0
    4.3822  -15.1015    0.0000 C   0  0  0  0  0  0  0  0  0  0  0  0
    4.3822  -14.2802    0.0000 C   0  0  0  0  0  0  0  0  0  0  0  0
    3.6769  -13.8634    0.0000 N   0  0  0  0  0  0  0  0  0  0  0  0
    3.6769  -13.0420    0.0000 O   0  0  0  0  0  0  0  0  0  0  0  0
    2.2562  -15.5112    0.0000 O   0  0  0  0  0  0  0  0  0  0  0  0
    5.0952  -13.8696    0.0000 C   0  0  0  0  0  0  0  0  0  0  0  0
    5.8058  -14.2844    0.0000 C   0  0  0  0  0  0  0  0  0  0  0  0
  1  2  1  0
  1  6  2  0
  2  3  1  0
  3  4  1  0
  4  5  2  0
  5  6  1  0
  6  7  1  0
  2  8  2  0
  5  9  1  0
  9 10  1  0
M  CHG  2   6   1   7  -1
M  END

> <chembl_id>
CHEMBL4293750

> <chembl_pref_name>
None

$$$$
 
     RDKit          2D

 10 10  0  0  0  0  0  0  0  0999 V2000
    9.6937  -10.0833    0.0000 N   0  0  0  0  0  0  0  0  0  0  0  0
    9.6971   -9.2661    0.0000 C   0  0  0  0  0  0  0  0  0  0  0  0
   10.4037   -8.8604    0.0000 C   0  0  0  0  0  0  0  0  0  0  0  0
   10.4070   -8.0432    0.0000 C   0  0  0  0  0  0  0  0  0  0  0  0
    9.6996   -7.6317    0.0000 C   0  0  0  0  0  0  0  0  0  0  0  0
    8.9930   -8.0415    0.0000 C   0  0  0  0  0  0  0  0  0  0  0  0
    8.9896   -8.8587    0.0000 C   0  0  0  0  0  0  0  0  0  0  0  0
    9.7029   -6.8145    0.0000 F   0  0  0  0  0  0  0  0  0  0  0  0
   11.1178   -7.6375    0.0000 C   0  0  0  0  0  0  0  0  0  0  0  0
   11.8244   -7.2276    0.0000 N   0  0  0  0  0  0  0  0  0  0  0  0
  1  2  1  0
  2  3  1  0
  3  4  2  0
  4  5  1  0
  5  6  2  0
  6  7  1  0
  2  7  2  0
  5  8  1  0
  9 10  3  0
  4  9  1  0
M  END

> <chembl_id>
CHEMBL4580748

> <chembl_pref_name>
None

$$$$

     RDKit          2D

 10 10  0  0  0  0  0  0  0  0999 V2000
    9.4762  -11.3779    0.0000 C   0  0  0  0  0  0  0  0  0  0  0  0
    9.4750  -12.2053    0.0000 C   0  0  0  0  0  0  0  0  0  0  0  0
   10.1898  -12.6182    0.0000 C   0  0  0  0  0  0  0  0  0  0  0  0
   10.9063  -12.2048    0.0000 C   0  0  0  0  0  0  0  0  0  0  0  0
   10.9034  -11.3743    0.0000 C   0  0  0  0  0  0  0  0  0  0  0  0
   10.1880  -10.9651    0.0000 C   0  0  0  0  0  0  0  0  0  0  0  0
   11.6163  -10.9591    0.0000 C   0  0  0  0  0  0  0  0  0  0  0  0
   12.3323  -11.3689    0.0000 C   0  0  0  0  0  0  0  0  0  0  0  0
   13.0452  -10.9537    0.0000 C   0  0  0  0  0  0  0  0  0  0  0  0
   13.7599  -11.3627    0.0000 F   0  0  0  0  0  0  0  0  0  0  0  0
  1  2  2  0
  2  3  1  0
  3  4  2  0
  4  5  1  0
  5  6  2  0
  6  1  1  0
  5  7  1  0
  7  8  1  0
  8  9  1  0
  9 10  1  0
M  END

> <chembl_id>
CHEMBL4212658

> <chembl_pref_name>
None

$$$$

     RDKit          2D

 10 10  0  0  0  0  0  0  0  0999 V2000
    1.2990   -0.7500    0.0000 N   0  0  0  0  0  0  0  0  0  0  0  0
    1.2990    0.7500    0.0000 C   0  0  0  0  0  0  0  0  0  0  0  0
    0.0000    1.5000    0.0000 N   0  0  0  0  0  0  0  0  0  0  0  0
   -1.2990    0.7500    0.0000 C   0  0  0  0  0  0  0  0  0  0  0  0
   -1.2990   -0.7500    0.0000 C   0  0  0  0  0  0  0  0  0  0  0  0
    0.0000   -1.5000    0.0000 N   0  0  0  0  0  0  0  0  0  0  0  0
    2.3383    1.3500    0.0000 O   0  0  0  0  0  0  0  0  0  0  0  0
   -2.3383    1.3500    0.0000 O   0  0  0  0  0  0  0  0  0  0  0  0
   -2.3383   -1.3500    0.0000 O   0  0  0  0  0  0  0  0  0  0  0  0
    2.3383   -1.3500    0.0000 C   0  0  0  0  0  0  0  0  0  0  0  0
  1  2  1  0
  1  6  1  0
  2  3  1  0
  3  4  1  0
  4  5  1  0
  5  6  2  0
  2  7  2  0
  4  8  2  0
  5  9  1  0
  1 10  1  0
M  END

> <chembl_id>
CHEMBL3613913

> <chembl_pref_name>
None

$$$$

     RDKit          2D

  9  9  0  0  0  0  0  0  0  0999 V2000
    0.6500    0.6792    0.0000 C   0  0  0  0  0  0  0  0  0  0  0  0
    1.4750    0.6792    0.0000 C   0  0  0  0  0  0  0  0  0  0  0  0
    1.7318   -0.1049    0.0000 N   0  0  0  0  0  0  0  0  0  0  0  0
    1.0625   -0.5917    0.0000 N   0  0  0  0  0  0  0  0  0  0  0  0
    0.3974   -0.1049    0.0000 C   0  0  0  0  0  0  0  0  0  0  0  0
    1.9591    1.3472    0.0000 C   0  0  0  0  0  0  0  0  0  0  0  0
    2.7797    1.2619    0.0000 O   0  0  0  0  0  0  0  0  0  0  0  0
    1.6227    2.1005    0.0000 N   0  0  0  0  0  0  0  0  0  0  0  0
    0.1642    1.3460    0.0000 N   0  0  0  0  0  0  0  0  0  0  0  0
  4  5  1  0
  5  1  2  0
  1  2  1  0
  2  6  1  0
  6  7  2  0
  2  3  2  0
  6  8  1  0
  3  4  1  0
  1  9  1  0
M  END

> <chembl_id>
CHEMBL1688205

> <chembl_pref_name>
None

$$$$

     RDKit          2D

  9  9  0  0  0  0  0  0  0  0999 V2000
   -3.6702   -0.4618    0.0000 C   0  0  0  0  0  0  0  0  0  0  0  0
   -2.8038    0.0372    0.0000 N   0  0  0  0  0  0  0  0  0  0  0  0
   -1.9384   -0.4638    0.0000 C   0  0  0  0  0  0  0  0  0  0  0  0
   -1.0718    0.0352    0.0000 C   0  0  0  0  0  0  0  0  0  0  0  0
   -0.9660    1.0296    0.0000 C   0  0  0  0  0  0  0  0  0  0  0  0
    0.0122    1.2364    0.0000 S   0  0  0  0  0  0  0  0  0  0  0  0
    0.5112    0.3698    0.0000 C   0  0  0  0  0  0  0  0  0  0  0  0
    1.5056    0.2642    0.0000 C   0  0  0  0  0  0  0  0  0  0  0  0
   -0.1586   -0.3726    0.0000 N   0  0  0  0  0  0  0  0  0  0  0  0
  1  2  1  0
  2  3  1  0
  3  4  1  0
  4  5  2  0
  5  6  1  0
  6  7  1  0
  7  8  1  0
  7  9  2  0
  9  4  1  0
M  END

> <chembl_id>
CHEMBL4559577

> <chembl_pref_name>
None

$$$$

     RDKit          2D

  9  9  0  0  0  0  0  0  0  0999 V2000
   -2.7072   -0.2098    0.0000 C   0  0  0  0  0  0  0  0  0  0  0  0
   -1.8418    0.2912    0.0000 C   0  0  0  0  0  0  0  0  0  0  0  0
   -0.9754   -0.2078    0.0000 N   0  0  0  0  0  0  0  0  0  0  0  0
   -0.8696   -1.2022    0.0000 C   0  0  0  0  0  0  0  0  0  0  0  0
    0.1088   -1.4090    0.0000 N   0  0  0  0  0  0  0  0  0  0  0  0
    0.6078   -0.5424    0.0000 N   0  0  0  0  0  0  0  0  0  0  0  0
   -0.0622    0.1998    0.0000 C   0  0  0  0  0  0  0  0  0  0  0  0
    0.1446    1.1782    0.0000 S   0  0  0  0  0  0  0  0  0  0  0  0
    1.0952    1.4882    0.0000 C   0  0  0  0  0  0  0  0  0  0  0  0
  1  2  1  0
  2  3  1  0
  3  4  1  0
  4  5  2  0
  5  6  1  0
  6  7  2  0
  7  8  1  0
  8  9  1  0
  7  3  1  0
M  END

> <chembl_id>
CHEMBL4543069

> <chembl_pref_name>
None

$$$$

     RDKit          2D

 10 10  0  0  0  0  0  0  0  0999 V2000
    0.6844    2.4484    0.0000 N   0  0  0  0  0  0  0  0  0  0  0  0
    0.6824    1.4484    0.0000 C   0  0  0  0  0  0  0  0  0  0  0  0
   -0.1846    0.9502    0.0000 C   0  0  0  0  0  0  0  0  0  0  0  0
   -1.0496    1.4518    0.0000 O   0  0  0  0  0  0  0  0  0  0  0  0
   -0.1868   -0.0498    0.0000 C   0  0  0  0  0  0  0  0  0  0  0  0
   -1.0538   -0.5480    0.0000 C   0  0  0  0  0  0  0  0  0  0  0  0
   -1.0558   -1.5480    0.0000 C   0  0  0  0  0  0  0  0  0  0  0  0
   -0.1908   -2.0498    0.0000 N   0  0  0  0  0  0  0  0  0  0  0  0
    0.6762   -1.5516    0.0000 C   0  0  0  0  0  0  0  0  0  0  0  0
    0.6784   -0.5516    0.0000 C   0  0  0  0  0  0  0  0  0  0  0  0
  1  2  1  0
  2  3  1  0
  3  4  1  0
  3  5  1  0
  5  6  2  0
  6  7  1  0
  7  8  2  0
  8  9  1  0
  9 10  2  0
 10  5  1  0
M  END

> <chembl_id>
CHEMBL4580173

> <chembl_pref_name>
None

$$$$
 
     RDKit          2D

  9  9  0  0  0  0  0  0  0  0999 V2000
    4.9757  -14.0214    0.0000 C   0  0  0  0  0  0  0  0  0  0  0  0
    5.6241  -14.5188    0.0000 N   0  0  0  0  0  0  0  0  0  0  0  0
    6.2975  -14.0558    0.0000 C   0  0  0  0  0  0  0  0  0  0  0  0
    6.0652  -13.2723    0.0000 C   0  0  0  0  0  0  0  0  0  0  0  0
    5.2484  -13.2511    0.0000 C   0  0  0  0  0  0  0  0  0  0  0  0
    6.5626  -12.6239    0.0000 C   0  0  0  0  0  0  0  0  0  0  0  0
    7.3728  -12.7303    0.0000 O   0  0  0  0  0  0  0  0  0  0  0  0
    6.2497  -11.8689    0.0000 O   0  0  0  0  0  0  0  0  0  0  0  0
    7.0678  -14.3285    0.0000 C   0  0  0  0  0  0  0  0  0  0  0  0
  1  2  1  0
  2  3  1  0
  3  4  2  0
  4  5  1  0
  5  1  2  0
  4  6  1  0
  6  7  1  0
  6  8  2  0
  3  9  1  0
M  END

> <chembl_id>
CHEMBL4636656

> <chembl_pref_name>
None

$$$$

     RDKit          2D

 11 11  0  0  0  0  0  0  0  0999 V2000
   -2.9182   -0.3028    0.0000 C   0  0  0  0  0  0  0  0  0  0  0  0
   -2.0540    0.2004    0.0000 O   0  0  0  0  0  0  0  0  0  0  0  0
   -1.1862   -0.2966    0.0000 C   0  0  0  0  0  0  0  0  0  0  0  0
   -0.3220    0.2066    0.0000 C   0  0  0  0  0  0  0  0  0  0  0  0
    0.5458   -0.2902    0.0000 C   0  0  0  0  0  0  0  0  0  0  0  0
    1.4100    0.2128    0.0000 C   0  0  0  0  0  0  0  0  0  0  0  0
    1.4064    1.2128    0.0000 C   0  0  0  0  0  0  0  0  0  0  0  0
    2.2706    1.7158    0.0000 C   0  0  0  0  0  0  0  0  0  0  0  0
    3.1348    2.2190    0.0000 N   0  0  0  0  0  0  0  0  0  0  0  0
    0.5386    1.7096    0.0000 C   0  0  0  0  0  0  0  0  0  0  0  0
   -0.3256    1.2066    0.0000 C   0  0  0  0  0  0  0  0  0  0  0  0
  1  2  1  0
  2  3  1  0
  3  4  1  0
  4  5  2  0
  5  6  1  0
  6  7  2  0
  7  8  1  0
  8  9  3  0
  7 10  1  0
 10 11  2  0
 11  4  1  0
M  END

> <chembl_id>
CHEMBL4548703

> <chembl_pref_name>
None

$$$$

     RDKit          2D

  9  9  0  0  0  0  0  0  0  0999 V2000
   -2.9288    0.2836    0.0000 C   0  0  0  0  0  0  0  0  0  0  0  0
   -2.0636   -0.2174    0.0000 C   0  0  0  0  0  0  0  0  0  0  0  0
   -1.1970    0.2816    0.0000 C   0  0  0  0  0  0  0  0  0  0  0  0
   -1.0914    1.2760    0.0000 N   0  0  0  0  0  0  0  0  0  0  0  0
   -0.1130    1.4828    0.0000 N   0  0  0  0  0  0  0  0  0  0  0  0
    0.3860    0.6162    0.0000 C   0  0  0  0  0  0  0  0  0  0  0  0
    1.3804    0.5106    0.0000 C   0  0  0  0  0  0  0  0  0  0  0  0
    1.9692    1.3188    0.0000 N   0  0  0  0  0  0  0  0  0  0  0  0
   -0.2838   -0.1262    0.0000 S   0  0  0  0  0  0  0  0  0  0  0  0
  1  2  1  0
  2  3  1  0
  3  4  2  0
  4  5  1  0
  5  6  2  0
  6  7  1  0
  7  8  1  0
  6  9  1  0
  9  3  1  0
M  END

> <chembl_id>
CHEMBL4543051

> <chembl_pref_name>
None

$$$$
 
     RDKit          2D

  8  8  0  0  0  0  0  0  0  0999 V2000
   15.9297   -6.6324    0.0000 C   0  0  0  0  0  0  0  0  0  0  0  0
   15.9285   -7.4520    0.0000 C   0  0  0  0  0  0  0  0  0  0  0  0
   16.6366   -7.8609    0.0000 N   0  0  0  0  0  0  0  0  0  0  0  0
   17.3462   -7.4515    0.0000 C   0  0  0  0  0  0  0  0  0  0  0  0
   17.3434   -6.6288    0.0000 C   0  0  0  0  0  0  0  0  0  0  0  0
   16.6348   -6.2236    0.0000 N   0  0  0  0  0  0  0  0  0  0  0  0
   18.0530   -7.8571    0.0000 C   0  0  0  0  0  0  0  0  0  0  0  0
   18.7613   -8.2646    0.0000 N   0  0  0  0  0  0  0  0  0  0  0  0
  1  2  2  0
  2  3  1  0
  3  4  2  0
  4  5  1  0
  5  6  2  0
  6  1  1  0
  7  8  3  0
  4  7  1  0
M  END

> <chembl_id>
CHEMBL4553837

> <chembl_pref_name>
None

$$$$

     RDKit          2D

  9  9  0  0  0  0  0  0  0  0999 V2000
    0.2438    2.1756    0.0000 N   0  0  0  0  0  0  0  0  0  0  0  0
   -0.6232    1.6774    0.0000 C   0  0  0  0  0  0  0  0  0  0  0  0
   -0.6252    0.6774    0.0000 C   0  0  0  0  0  0  0  0  0  0  0  0
    0.2398    0.1756    0.0000 C   0  0  0  0  0  0  0  0  0  0  0  0
    0.2378   -0.8244    0.0000 C   0  0  0  0  0  0  0  0  0  0  0  0
   -0.6292   -1.3226    0.0000 C   0  0  0  0  0  0  0  0  0  0  0  0
   -1.4942   -0.8208    0.0000 N   0  0  0  0  0  0  0  0  0  0  0  0
   -1.4922    0.1790    0.0000 C   0  0  0  0  0  0  0  0  0  0  0  0
   -2.3572    0.6808    0.0000 O   0  0  0  0  0  0  0  0  0  0  0  0
  1  2  1  0
  2  3  1  0
  3  4  2  0
  4  5  1  0
  5  6  2  0
  6  7  1  0
  7  8  2  0
  8  9  1  0
  8  3  1  0
M  END

> <chembl_id>
CHEMBL4552269

> <chembl_pref_name>
None

$$$$

     RDKit          2D

 10 10  0  0  0  0  0  0  0  0999 V2000
   -2.8048   -0.4272    0.0000 C   0  0  0  0  0  0  0  0  0  0  0  0
   -1.9406    0.0758    0.0000 N   0  0  0  0  0  0  0  0  0  0  0  0
   -1.0728   -0.4210    0.0000 C   0  0  0  0  0  0  0  0  0  0  0  0
   -0.2086    0.0820    0.0000 C   0  0  0  0  0  0  0  0  0  0  0  0
    0.6592   -0.4148    0.0000 C   0  0  0  0  0  0  0  0  0  0  0  0
    1.5236    0.0882    0.0000 C   0  0  0  0  0  0  0  0  0  0  0  0
    1.5198    1.0882    0.0000 C   0  0  0  0  0  0  0  0  0  0  0  0
    2.3840    1.5914    0.0000 N   0  0  0  0  0  0  0  0  0  0  0  0
    0.6520    1.5852    0.0000 N   0  0  0  0  0  0  0  0  0  0  0  0
   -0.2122    1.0820    0.0000 C   0  0  0  0  0  0  0  0  0  0  0  0
  1  2  1  0
  2  3  1  0
  3  4  1  0
  4  5  2  0
  5  6  1  0
  6  7  2  0
  7  8  1  0
  7  9  1  0
  9 10  2  0
 10  4  1  0
M  END

> <chembl_id>
CHEMBL4521958

> <chembl_pref_name>
None

$$$$

     RDKit          2D

 10 11  0  0  0  0  0  0  0  0999 V2000
    1.3814    2.3214    0.0000 O   0  0  0  0  0  0  0  0  0  0  0  0
    0.5724    1.7334    0.0000 C   0  0  0  0  0  0  0  0  0  0  0  0
    0.6774    0.7388    0.0000 C   0  0  0  0  0  0  0  0  0  0  0  0
   -0.0656    0.0696    0.0000 C   0  0  0  0  0  0  0  0  0  0  0  0
    0.3414   -0.8438    0.0000 C   0  0  0  0  0  0  0  0  0  0  0  0
   -0.1582   -1.7100    0.0000 C   0  0  0  0  0  0  0  0  0  0  0  0
   -0.1578   -2.7100    0.0000 C   0  0  0  0  0  0  0  0  0  0  0  0
   -1.0240   -2.2104    0.0000 C   0  0  0  0  0  0  0  0  0  0  0  0
    1.3358   -0.7390    0.0000 N   0  0  0  0  0  0  0  0  0  0  0  0
    1.5436    0.2392    0.0000 N   0  0  0  0  0  0  0  0  0  0  0  0
  1  2  1  0
  2  3  1  0
  3  4  2  0
  4  5  1  0
  5  6  1  0
  6  7  1  0
  7  8  1  0
  5  9  2  0
  9 10  1  0
 10  3  1  0
  8  6  1  0
M  END

> <chembl_id>
CHEMBL4544278

> <chembl_pref_name>
None

$$$$

     RDKit          2D

 10 10  0  0  0  0  0  0  0  0999 V2000
    0.6660    1.8842    0.0000 C   0  0  0  0  0  0  0  0  0  0  0  0
   -0.2010    1.3858    0.0000 O   0  0  0  0  0  0  0  0  0  0  0  0
   -0.2030    0.3860    0.0000 C   0  0  0  0  0  0  0  0  0  0  0  0
    0.6620   -0.1158    0.0000 C   0  0  0  0  0  0  0  0  0  0  0  0
    0.6600   -1.1158    0.0000 C   0  0  0  0  0  0  0  0  0  0  0  0
   -0.2070   -1.6140    0.0000 C   0  0  0  0  0  0  0  0  0  0  0  0
   -1.0720   -1.1124    0.0000 N   0  0  0  0  0  0  0  0  0  0  0  0
   -1.0700   -0.1124    0.0000 C   0  0  0  0  0  0  0  0  0  0  0  0
   -1.9350    0.3894    0.0000 C   0  0  0  0  0  0  0  0  0  0  0  0
   -2.8000    0.8910    0.0000 N   0  0  0  0  0  0  0  0  0  0  0  0
  1  2  1  0
  2  3  1  0
  3  4  2  0
  4  5  1  0
  5  6  2  0
  6  7  1  0
  7  8  2  0
  8  9  1  0
  9 10  3  0
  8  3  1  0
M  END

> <chembl_id>
CHEMBL4586162

> <chembl_pref_name>
None

$$$$

     RDKit          2D

 10 10  0  0  0  0  0  0  0  0999 V2000
    0.7806    2.9538    0.0000 C   0  0  0  0  0  0  0  0  0  0  0  0
   -0.0864    2.4556    0.0000 C   0  0  0  0  0  0  0  0  0  0  0  0
   -0.0884    1.4556    0.0000 C   0  0  0  0  0  0  0  0  0  0  0  0
    0.7766    0.9540    0.0000 C   0  0  0  0  0  0  0  0  0  0  0  0
    0.7746   -0.0460    0.0000 C   0  0  0  0  0  0  0  0  0  0  0  0
   -0.0926   -0.5442    0.0000 C   0  0  0  0  0  0  0  0  0  0  0  0
   -0.9576   -0.0426    0.0000 C   0  0  0  0  0  0  0  0  0  0  0  0
   -1.8246   -0.5408    0.0000 C   0  0  0  0  0  0  0  0  0  0  0  0
   -1.8266   -1.5408    0.0000 N   0  0  0  0  0  0  0  0  0  0  0  0
   -0.9556    0.9574    0.0000 C   0  0  0  0  0  0  0  0  0  0  0  0
  1  2  1  0
  2  3  1  0
  3  4  2  0
  4  5  1  0
  5  6  2  0
  6  7  1  0
  7  8  1  0
  8  9  1  0
  7 10  2  0
 10  3  1  0
M  END

> <chembl_id>
CHEMBL4541991

> <chembl_pref_name>
None

$$$$

     RDKit          2D

 10 10  0  0  0  0  0  0  0  0999 V2000
    0.8350    1.4606    0.0000 C   0  0  0  0  0  0  0  0  0  0  0  0
    0.8314    0.4606    0.0000 N   0  0  0  0  0  4  0  0  0  0  0  0
    1.6956   -0.0424    0.0000 C   0  0  0  0  0  0  0  0  0  0  0  0
    1.6920   -1.0424    0.0000 C   0  0  0  0  0  0  0  0  0  0  0  0
    0.8242   -1.5394    0.0000 C   0  0  0  0  0  0  0  0  0  0  0  0
   -0.0400   -1.0362    0.0000 C   0  0  0  0  0  0  0  0  0  0  0  0
   -0.0364   -0.0362    0.0000 C   0  0  0  0  0  0  0  0  0  0  0  0
   -0.9006    0.4668    0.0000 C   0  0  0  0  0  0  0  0  0  0  0  0
   -1.7684   -0.0300    0.0000 N   0  0  0  0  0  0  0  0  0  0  0  0
   -2.6326    0.4730    0.0000 O   0  0  0  0  0  0  0  0  0  0  0  0
  1  2  1  0
  2  3  2  0
  3  4  1  0
  4  5  2  0
  5  6  1  0
  6  7  2  0
  7  8  1  0
  8  9  1  0
  9 10  2  0
  7  2  1  0
M  CHG  1   2   1
M  END

> <chembl_id>
CHEMBL4303284

> <chembl_pref_name>
None

$$$$

     RDKit          2D

  7  7  0  0  0  0  0  0  0  0999 V2000
    1.4553   -2.0031    0.0000 C   0  0  0  0  0  0  0  0  0  0  0  0
    0.7500   -1.0323    0.0000 C   0  0  0  0  0  0  0  0  0  0  0  0
    1.2135    0.3943    0.0000 C   0  0  0  0  0  0  0  0  0  0  0  0
    0.0000    1.2760    0.0000 N   0  0  0  0  0  0  0  0  0  0  0  0
   -1.2135    0.3943    0.0000 C   0  0  0  0  0  0  0  0  0  0  0  0
   -2.3548    0.7651    0.0000 C   0  0  0  0  0  0  0  0  0  0  0  0
   -0.7500   -1.0323    0.0000 C   0  0  0  0  0  0  0  0  0  0  0  0
  1  2  1  0
  2  3  2  0
  3  4  1  0
  4  5  1  0
  5  6  1  0
  5  7  2  0
  7  2  1  0
M  END

> <chembl_id>
CHEMBL3976159

> <chembl_pref_name>
None

$$$$

     RDKit          2D

  9  9  0  0  0  0  0  0  0  0999 V2000
    3.0771   -2.5397    0.0000 N   0  0  0  0  0  0  0  0  0  0  0  0
    3.4917   -1.8274    0.0000 C   0  0  0  0  0  0  0  0  0  0  0  0
    3.0771   -1.1109    0.0000 O   0  0  0  0  0  0  0  0  0  0  0  0
    4.3168   -1.8274    0.0000 C   0  0  0  0  0  0  0  0  0  0  0  0
    4.7273   -1.1109    0.0000 C   0  0  0  0  0  0  0  0  0  0  0  0
    5.5523   -1.1109    0.0000 C   0  0  0  0  0  0  0  0  0  0  0  0
    5.9669   -1.8274    0.0000 N   0  0  0  0  0  0  0  0  0  0  0  0
    5.5523   -2.5397    0.0000 C   0  0  0  0  0  0  0  0  0  0  0  0
    4.7273   -2.5397    0.0000 C   0  0  0  0  0  0  0  0  0  0  0  0
  1  2  1  0
  2  3  2  0
  2  4  1  0
  4  5  2  0
  5  6  1  0
  6  7  2  0
  7  8  1  0
  8  9  2  0
  4  9  1  0
M  END

> <chembl_id>
CHEMBL271717

> <chembl_pref_name>
None

$$$$

     RDKit          2D

  8  8  0  0  0  0  0  0  0  0999 V2000
   -1.8914   -1.7732    0.0000 C   0  0  0  0  0  0  0  0  0  0  0  0
   -1.0250   -1.2740    0.0000 C   0  0  0  0  0  0  0  0  0  0  0  0
   -0.1594   -1.7746    0.0000 C   0  0  0  0  0  0  0  0  0  0  0  0
    0.7070   -1.2754    0.0000 C   0  0  0  0  0  0  0  0  0  0  0  0
    0.7078   -0.2754    0.0000 N   0  0  0  0  0  0  0  0  0  0  0  0
   -0.1578    0.2254    0.0000 C   0  0  0  0  0  0  0  0  0  0  0  0
   -0.1570    1.2254    0.0000 O   0  0  0  0  0  0  0  0  0  0  0  0
   -1.0242   -0.2740    0.0000 C   0  0  0  0  0  0  0  0  0  0  0  0
  1  2  1  0
  2  3  1  0
  3  4  2  0
  4  5  1  0
  5  6  1  0
  6  7  2  0
  6  8  1  0
  8  2  2  0
M  END

> <chembl_id>
CHEMBL4593828

> <chembl_pref_name>
None

$$$$
 
     RDKit          2D

 10 10  0  0  0  0  0  0  0  0999 V2000
   44.1145  -25.8694    0.0000 C   0  0  0  0  0  0  0  0  0  0  0  0
   44.1134  -26.6890    0.0000 C   0  0  0  0  0  0  0  0  0  0  0  0
   44.8214  -27.0979    0.0000 C   0  0  0  0  0  0  0  0  0  0  0  0
   45.5311  -26.6885    0.0000 C   0  0  0  0  0  0  0  0  0  0  0  0
   45.5283  -25.8658    0.0000 C   0  0  0  0  0  0  0  0  0  0  0  0
   44.8196  -25.4606    0.0000 C   0  0  0  0  0  0  0  0  0  0  0  0
   46.2344  -25.4546    0.0000 C   0  0  0  0  0  0  0  0  0  0  0  0
   46.2313  -24.6374    0.0000 O   0  0  0  0  0  0  0  0  0  0  0  0
   43.4067  -25.4610    0.0000 C   0  0  0  0  0  0  0  0  0  0  0  0
   42.6989  -25.0526    0.0000 N   0  0  0  0  0  0  0  0  0  0  0  0
  1  2  2  0
  2  3  1  0
  3  4  2  0
  4  5  1  0
  5  6  2  0
  6  1  1  0
  5  7  1  0
  7  8  2  0
  1  9  1  0
  9 10  3  0
M  END

> <chembl_id>
CHEMBL4561930

> <chembl_pref_name>
None

$$$$

     RDKit          2D

 10 10  0  0  1  0  0  0  0  0999 V2000
    2.1182    0.0000    0.0000 O   0  0  0  0  0  0  0  0  0  0  0  0
    0.0000   -0.4160    0.0000 O   0  0  0  0  0  0  0  0  0  0  0  0
    1.4073   -1.2686    0.0000 C   0  0  0  0  0  0  0  0  0  0  0  0
    1.4073   -0.4160    0.0000 C   0  0  0  0  0  0  0  0  0  0  0  0
    0.7140   -1.6816    0.0000 C   0  0  0  0  0  0  0  0  0  0  0  0
    2.1182   -1.6816    0.0000 C   0  0  0  0  0  0  0  0  0  0  0  0
    0.7140    0.0000    0.0000 C   0  0  0  0  0  0  0  0  0  0  0  0
    0.7140   -2.5254    0.0000 C   0  0  0  0  0  0  0  0  0  0  0  0
    2.1182   -2.5254    0.0000 C   0  0  0  0  0  0  0  0  0  0  0  0
    1.4073   -2.9502    0.0000 C   0  0  0  0  0  0  0  0  0  0  0  0
  1  4  1  0
  2  7  1  0
  3  4  1  0
  3  5  2  0
  3  6  1  0
  4  7  1  0
  5  8  1  0
  6  9  2  0
  8 10  2  0
  9 10  1  0
M  END

> <chembl_id>
CHEMBL3188703

> <chembl_pref_name>
None

$$$$

     RDKit          2D

 10 10  0  0  0  0  0  0  0  0999 V2000
    2.4749   -3.2481    0.0000 C   0  0  0  0  0  0  0  0  0  0  0  0
    2.4738   -4.0676    0.0000 C   0  0  0  0  0  0  0  0  0  0  0  0
    3.1818   -4.4766    0.0000 C   0  0  0  0  0  0  0  0  0  0  0  0
    3.8915   -4.0672    0.0000 C   0  0  0  0  0  0  0  0  0  0  0  0
    3.8887   -3.2445    0.0000 C   0  0  0  0  0  0  0  0  0  0  0  0
    3.1800   -2.8392    0.0000 C   0  0  0  0  0  0  0  0  0  0  0  0
    4.5948   -2.8332    0.0000 N   0  0  0  0  0  0  0  0  0  0  0  0
    5.3041   -3.2392    0.0000 C   0  0  0  0  0  0  0  0  0  0  0  0
    6.0102   -2.8279    0.0000 C   0  0  0  0  0  0  0  0  0  0  0  0
    6.7190   -2.4142    0.0000 C   0  0  0  0  0  0  0  0  0  0  0  0
  1  2  2  0
  2  3  1  0
  3  4  2  0
  4  5  1  0
  5  6  2  0
  6  1  1  0
  5  7  1  0
  7  8  1  0
  8  9  1  0
  9 10  3  0
M  END

> <chembl_id>
CHEMBL4291831

> <chembl_pref_name>
None

$$$$

     RDKit          2D

 10 10  0  0  0  0  0  0  0  0999 V2000
   35.2383  -14.4164    0.0000 C   0  0  0  0  0  0  0  0  0  0  0  0
   35.2383  -15.2377    0.0000 C   0  0  0  0  0  0  0  0  0  0  0  0
   35.9477  -15.6463    0.0000 C   0  0  0  0  0  0  0  0  0  0  0  0
   36.6571  -15.2377    0.0000 C   0  0  0  0  0  0  0  0  0  0  0  0
   36.6571  -14.4164    0.0000 C   0  0  0  0  0  0  0  0  0  0  0  0
   35.9477  -14.0037    0.0000 C   0  0  0  0  0  0  0  0  0  0  0  0
   35.9477  -13.1824    0.0000 O   0  0  0  0  0  0  0  0  0  0  0  0
   35.9477  -16.4676    0.0000 O   0  0  0  0  0  0  0  0  0  0  0  0
   34.5270  -15.6515    0.0000 C   0  0  0  0  0  0  0  0  0  0  0  0
   37.3683  -15.6515    0.0000 C   0  0  0  0  0  0  0  0  0  0  0  0
  1  2  2  0
  1  6  1  0
  2  3  1  0
  3  4  2  0
  4  5  1  0
  5  6  2  0
  6  7  1  0
  3  8  1  0
  2  9  1  0
  4 10  1  0
M  END

> <chembl_id>
CHEMBL4205770

> <chembl_pref_name>
None

$$$$

     RDKit          2D

 11 12  0  0  0  0  0  0  0  0999 V2000
   -2.8254   -1.8316    0.0000 N   0  0  0  0  0  0  0  0  0  0  0  0
   -1.9562   -1.3370    0.0000 C   0  0  0  0  0  0  0  0  0  0  0  0
   -1.6910   -0.3728    0.0000 C   0  0  0  0  0  0  0  0  0  0  0  0
   -0.7268   -0.6378    0.0000 C   0  0  0  0  0  0  0  0  0  0  0  0
    0.1424   -0.1434    0.0000 C   0  0  0  0  0  0  0  0  0  0  0  0
    1.0052   -0.6488    0.0000 C   0  0  0  0  0  0  0  0  0  0  0  0
    1.8744   -0.1544    0.0000 C   0  0  0  0  0  0  0  0  0  0  0  0
    1.8808    0.8456    0.0000 C   0  0  0  0  0  0  0  0  0  0  0  0
    1.0180    1.3510    0.0000 C   0  0  0  0  0  0  0  0  0  0  0  0
    0.1488    0.8566    0.0000 C   0  0  0  0  0  0  0  0  0  0  0  0
   -0.9918   -1.6020    0.0000 C   0  0  0  0  0  0  0  0  0  0  0  0
  2  1  1  1
  2  3  1  0
  3  4  1  0
  4  5  1  1
  5  6  2  0
  6  7  1  0
  7  8  2  0
  8  9  1  0
  9 10  2  0
  4 11  1  0
 11  2  1  0
 10  5  1  0
M  END

> <chembl_id>
CHEMBL4568652

> <chembl_pref_name>
None

$$$$

     RDKit          2D

  9  9  0  0  0  0  0  0  0  0999 V2000
    1.2990   -0.7500    0.0000 C   0  0  0  0  0  0  0  0  0  0  0  0
    1.2990    0.7500    0.0000 C   0  0  0  0  0  0  0  0  0  0  0  0
    0.0000    1.5000    0.0000 N   0  0  0  0  0  0  0  0  0  0  0  0
   -1.2990    0.7500    0.0000 C   0  0  0  0  0  0  0  0  0  0  0  0
   -1.2990   -0.7500    0.0000 C   0  0  0  0  0  0  0  0  0  0  0  0
    0.0000   -1.5000    0.0000 C   0  0  0  0  0  0  0  0  0  0  0  0
    0.0000   -2.7000    0.0000 O   0  0  0  0  0  0  0  0  0  0  0  0
    2.3383   -1.3500    0.0000 F   0  0  0  0  0  0  0  0  0  0  0  0
   -2.3383    1.3500    0.0000 C   0  0  0  0  0  0  0  0  0  0  0  0
  1  2  2  0
  1  6  1  0
  2  3  1  0
  3  4  1  0
  4  5  2  0
  5  6  1  0
  6  7  2  0
  1  8  1  0
  4  9  1  0
M  END

> <chembl_id>
CHEMBL3787084

> <chembl_pref_name>
None

$$$$

     RDKit          2D

 11 12  0  0  0  0  0  0  0  0999 V2000
   21.8646   -1.8366    0.0000 C   0  0  0  0  0  0  0  0  0  0  0  0
   21.8635   -2.6561    0.0000 C   0  0  0  0  0  0  0  0  0  0  0  0
   22.5715   -3.0651    0.0000 N   0  0  0  0  0  0  0  0  0  0  0  0
   22.5698   -1.4277    0.0000 C   0  0  0  0  0  0  0  0  0  0  0  0
   23.2784   -1.8330    0.0000 C   0  0  0  0  0  0  0  0  0  0  0  0
   23.2818   -2.6582    0.0000 C   0  0  0  0  0  0  0  0  0  0  0  0
   23.9941   -3.0656    0.0000 N   0  0  0  0  0  0  0  0  0  0  0  0
   24.7077   -2.6523    0.0000 C   0  0  0  0  0  0  0  0  0  0  0  0
   24.7043   -1.8271    0.0000 C   0  0  0  0  0  0  0  0  0  0  0  0
   23.9874   -1.4152    0.0000 N   0  0  0  0  0  0  0  0  0  0  0  0
   25.4108   -1.4163    0.0000 C   0  0  0  0  0  0  0  0  0  0  0  0
  1  2  2  0
  2  3  1  0
  3  6  2  0
  5  4  2  0
  4  1  1  0
  5  6  1  0
  5 10  1  0
  6  7  1  0
  7  8  1  0
  8  9  1  0
  9 10  1  0
  9 11  1  6
M  END

> <chembl_id>
CHEMBL3898976

> <chembl_pref_name>
None

$$$$
 
     RDKit          2D

 11 12  0  0  0  0  0  0  0  0999 V2000
   15.4922   -4.3666    0.0000 C   0  0  0  0  0  0  0  0  0  0  0  0
   15.4911   -5.1861    0.0000 C   0  0  0  0  0  0  0  0  0  0  0  0
   16.1991   -5.5951    0.0000 C   0  0  0  0  0  0  0  0  0  0  0  0
   16.9088   -5.1856    0.0000 C   0  0  0  0  0  0  0  0  0  0  0  0
   16.9059   -4.3630    0.0000 C   0  0  0  0  0  0  0  0  0  0  0  0
   16.1973   -3.9577    0.0000 C   0  0  0  0  0  0  0  0  0  0  0  0
   16.1949   -3.1405    0.0000 C   0  0  0  0  0  0  0  0  0  0  0  0
   16.7709   -2.5669    0.0000 N   0  0  0  0  0  0  0  0  0  0  0  0
   16.1914   -1.9908    0.0000 C   0  0  0  0  0  0  0  0  0  0  0  0
   15.6153   -2.5704    0.0000 C   0  0  0  0  0  0  0  0  0  0  0  0
   16.1889   -1.1736    0.0000 O   0  0  0  0  0  0  0  0  0  0  0  0
  1  2  2  0
  2  3  1  0
  3  4  2  0
  4  5  1  0
  5  6  2  0
  6  1  1  0
  6  7  1  0
  7  8  1  0
  8  9  1  0
  9 10  1  0
 10  7  1  0
  9 11  2  0
M  END

> <chembl_id>
CHEMBL4535131

> <chembl_pref_name>
None

$$$$
 
     RDKit          2D

  9 10  0  0  0  0  0  0  0  0999 V2000
    2.8028   -8.5082    0.0000 C   0  0  0  0  0  0  0  0  0  0  0  0
    2.8016   -9.3332    0.0000 C   0  0  0  0  0  0  0  0  0  0  0  0
    3.5144   -9.7448    0.0000 C   0  0  0  0  0  0  0  0  0  0  0  0
    3.5126   -8.0967    0.0000 C   0  0  0  0  0  0  0  0  0  0  0  0
    4.2259   -8.5046    0.0000 C   0  0  0  0  0  0  0  0  0  0  0  0
    4.2307   -9.3332    0.0000 C   0  0  0  0  0  0  0  0  0  0  0  0
    5.0203   -9.5846    0.0000 O   0  0  0  0  0  0  0  0  0  0  0  0
    5.5034   -8.9114    0.0000 C   0  0  0  0  0  0  0  0  0  0  0  0
    5.0124   -8.2440    0.0000 O   0  0  0  0  0  0  0  0  0  0  0  0
  1  2  2  0
  2  3  1  0
  3  6  2  0
  5  4  2  0
  4  1  1  0
  5  6  1  0
  6  7  1  0
  7  8  1  0
  8  9  1  0
  9  5  1  0
M  END

> <chembl_id>
CHEMBL4757380

> <chembl_pref_name>
None

$$$$
 
     RDKit          2D

  9  9  0  0  0  0  0  0  0  0999 V2000
    3.7544   -3.7888    0.0000 C   0  0  0  0  0  0  0  0  0  0  0  0
    3.7532   -4.6083    0.0000 C   0  0  0  0  0  0  0  0  0  0  0  0
    4.4613   -5.0173    0.0000 N   0  0  0  0  0  0  0  0  0  0  0  0
    5.1709   -4.6078    0.0000 C   0  0  0  0  0  0  0  0  0  0  0  0
    5.1681   -3.7852    0.0000 C   0  0  0  0  0  0  0  0  0  0  0  0
    4.4595   -3.3799    0.0000 C   0  0  0  0  0  0  0  0  0  0  0  0
    4.4570   -2.5627    0.0000 C   0  0  0  0  0  0  0  0  0  0  0  0
    5.8793   -5.0153    0.0000 C   0  0  0  0  0  0  0  0  0  0  0  0
    3.0466   -3.3803    0.0000 N   0  0  0  0  0  0  0  0  0  0  0  0
  1  2  2  0
  2  3  1  0
  3  4  2  0
  4  5  1  0
  5  6  2  0
  6  1  1  0
  6  7  1  0
  4  8  1  0
  1  9  1  0
M  END

> <chembl_id>
CHEMBL4860378

> <chembl_pref_name>
None

$$$$

     RDKit          2D

 10 10  0  0  0  0  0  0  0  0999 V2000
    3.6682    1.6500    0.0000 O   0  0  0  0  0  0  0  0  0  0  0  0
    5.0972    0.8250    0.0000 O   0  0  0  0  0  0  0  0  0  0  0  0
    2.2393   -1.6500    0.0000 N   0  0  0  0  0  0  0  0  0  0  0  0
    3.6682    0.8250    0.0000 C   0  0  0  0  0  0  0  0  0  0  0  0
    4.3827    0.4125    0.0000 C   0  0  0  0  0  0  0  0  0  0  0  0
    2.9538   -0.4125    0.0000 C   0  0  0  0  0  0  0  0  0  0  0  0
    2.9538    0.4125    0.0000 C   0  0  0  0  0  0  0  0  0  0  0  0
    4.3827   -0.4125    0.0000 C   0  0  0  0  0  0  0  0  0  0  0  0
    3.6682   -0.8250    0.0000 C   0  0  0  0  0  0  0  0  0  0  0  0
    2.2393   -0.8250    0.0000 C   0  0  0  0  0  0  0  0  0  0  0  0
  1  4  1  0
  2  5  1  0
  3 10  1  0
  4  5  2  0
  4  7  1  0
  5  8  1  0
  6  7  2  0
  6  9  1  0
  6 10  1  0
  8  9  2  0
M  END

> <chembl_id>
CHEMBL2009732

> <chembl_pref_name>
None

$$$$
 
     RDKit          2D

  9  9  0  0  0  0  0  0  0  0999 V2000
   16.1664  -20.3803    0.0000 C   0  0  0  0  0  0  0  0  0  0  0  0
   16.1664  -21.1974    0.0000 C   0  0  0  0  0  0  0  0  0  0  0  0
   16.8716  -21.6019    0.0000 N   0  0  0  0  0  0  0  0  0  0  0  0
   17.5769  -21.1974    0.0000 C   0  0  0  0  0  0  0  0  0  0  0  0
   17.5769  -20.3803    0.0000 N   0  0  0  0  0  0  0  0  0  0  0  0
   16.8716  -19.9675    0.0000 C   0  0  0  0  0  0  0  0  0  0  0  0
   16.8716  -19.1503    0.0000 O   0  0  0  0  0  0  0  0  0  0  0  0
   18.2840  -21.6071    0.0000 O   0  0  0  0  0  0  0  0  0  0  0  0
   16.8716  -22.4191    0.0000 C   0  0  0  0  0  0  0  0  0  0  0  0
  1  2  2  0
  1  6  1  0
  2  3  1  0
  3  4  1  0
  4  5  1  0
  5  6  1  0
  6  7  2  0
  4  8  2  0
  3  9  1  0
M  END

> <chembl_id>
CHEMBL4797970

> <chembl_pref_name>
None

$$$$

     RDKit          2D

  9  9  0  0  0  0  0  0  0  0999 V2000
    0.7126   -0.4154    0.0000 N   0  0  0  0  0  0  0  0  0  0  0  0
    0.7126   -2.8848    0.0000 N   0  0  0  0  0  0  0  0  0  0  0  0
    0.7126   -1.2404    0.0000 C   0  0  0  0  0  0  0  0  0  0  0  0
    0.0000   -1.6444    0.0000 C   0  0  0  0  0  0  0  0  0  0  0  0
    1.4280   -1.6444    0.0000 C   0  0  0  0  0  0  0  0  0  0  0  0
    0.0000   -2.4694    0.0000 C   0  0  0  0  0  0  0  0  0  0  0  0
    1.4280   -2.4694    0.0000 C   0  0  0  0  0  0  0  0  0  0  0  0
    1.4280    0.0000    0.0000 C   0  0  0  0  0  0  0  0  0  0  0  0
    0.0000    0.0000    0.0000 C   0  0  0  0  0  0  0  0  0  0  0  0
  1  3  1  0
  1  8  1  0
  1  9  1  0
  2  6  2  0
  2  7  1  0
  3  4  2  0
  3  5  1  0
  4  6  1  0
  5  7  2  0
M  END

> <chembl_id>
CHEMBL3561645

> <chembl_pref_name>
None

$$$$

     RDKit          2D

  6  6  0  0  0  0  0  0  0  0999 V2000
    2.9056  -12.1629    0.0000 N   0  0  0  0  0  0  0  0  0  0  0  0
    3.5685  -11.6850    0.0000 N   0  0  0  0  0  0  0  0  0  0  0  0
    3.3142  -10.9042    0.0000 C   0  0  0  0  0  0  0  0  0  0  0  0
    2.4970  -10.9042    0.0000 C   0  0  0  0  0  0  0  0  0  0  0  0
    2.2426  -11.6850    0.0000 C   0  0  0  0  0  0  0  0  0  0  0  0
    3.7942  -10.2429    0.0000 O   0  0  0  0  0  0  0  0  0  0  0  0
  4  5  2  0
  2  3  2  0
  1  2  1  0
  3  4  1  0
  5  1  1  0
  3  6  1  0
M  END

> <chembl_id>
CHEMBL4227850

> <chembl_pref_name>
None

$$$$
 
     RDKit          2D

  8  8  0  0  0  0  0  0  0  0999 V2000
    7.4959  -16.8333    0.0000 C   0  0  0  0  0  0  0  0  0  0  0  0
    8.3208  -16.8333    0.0000 O   0  0  0  0  0  0  0  0  0  0  0  0
    8.5776  -16.0492    0.0000 N   0  0  0  0  0  0  0  0  0  0  0  0
    7.9083  -15.5625    0.0000 C   0  0  0  0  0  0  0  0  0  0  0  0
    7.2433  -16.0492    0.0000 C   0  0  0  0  0  0  0  0  0  0  0  0
    7.9070  -14.7375    0.0000 C   0  0  0  0  0  0  0  0  0  0  0  0
    6.4585  -15.7946    0.0000 C   0  0  0  0  0  0  0  0  0  0  0  0
    7.0101  -17.5002    0.0000 N   0  0  0  0  0  0  0  0  0  0  0  0
  1  2  1  0
  2  3  1  0
  3  4  2  0
  4  5  1  0
  5  1  2  0
  4  6  1  0
  5  7  1  0
  1  8  1  0
M  END

> <chembl_id>
CHEMBL4760618

> <chembl_pref_name>
None

$$$$

     RDKit          2D

  9  9  0  0  0  0  0  0  0  0999 V2000
   -2.6702   -0.4618    0.0000 N   0  0  0  0  0  0  0  0  0  0  0  0
   -1.8038    0.0372    0.0000 C   0  0  0  0  0  0  0  0  0  0  0  0
   -0.9384   -0.4638    0.0000 C   0  0  0  0  0  0  0  0  0  0  0  0
   -0.0718    0.0352    0.0000 C   0  0  0  0  0  0  0  0  0  0  0  0
    0.8414   -0.3726    0.0000 N   0  0  0  0  0  0  0  0  0  0  0  0
    1.5112    0.3698    0.0000 C   0  0  0  0  0  0  0  0  0  0  0  0
    2.5056    0.2642    0.0000 N   0  0  0  0  0  0  0  0  0  0  0  0
    1.0122    1.2364    0.0000 N   0  0  0  0  0  0  0  0  0  0  0  0
    0.0340    1.0296    0.0000 O   0  0  0  0  0  0  0  0  0  0  0  0
  1  2  1  0
  2  3  1  0
  3  4  1  0
  4  5  2  0
  5  6  1  0
  6  7  1  0
  6  8  2  0
  8  9  1  0
  9  4  1  0
M  END

> <chembl_id>
CHEMBL4572628

> <chembl_pref_name>
None

$$$$

     RDKit          2D

  9  9  0  0  0  0  0  0  0  0999 V2000
   -2.6638   -0.6644    0.0000 C   0  0  0  0  0  0  0  0  0  0  0  0
   -1.7972   -0.1654    0.0000 C   0  0  0  0  0  0  0  0  0  0  0  0
   -1.7958    0.8346    0.0000 O   0  0  0  0  0  0  0  0  0  0  0  0
   -0.9318   -0.6664    0.0000 N   0  0  0  0  0  0  0  0  0  0  0  0
   -0.0652   -0.1674    0.0000 C   0  0  0  0  0  0  0  0  0  0  0  0
    0.8480   -0.5752    0.0000 C   0  0  0  0  0  0  0  0  0  0  0  0
    1.5178    0.1672    0.0000 N   0  0  0  0  0  0  0  0  0  0  0  0
    1.0188    1.0338    0.0000 N   0  0  0  0  0  0  0  0  0  0  0  0
    0.0404    0.8268    0.0000 C   0  0  0  0  0  0  0  0  0  0  0  0
  1  2  1  0
  2  3  2  0
  2  4  1  0
  4  5  1  0
  5  6  1  0
  6  7  2  0
  7  8  1  0
  8  9  1  0
  9  5  2  0
M  END

> <chembl_id>
CHEMBL4581159

> <chembl_pref_name>
None

$$$$

     RDKit          2D

 11 12  0  0  0  0  0  0  0  0999 V2000
   -2.1166   -1.0764    0.0000 N   0  0  0  0  0  0  0  0  0  0  0  0
   -1.2502   -1.5758    0.0000 C   0  0  0  0  0  0  0  0  0  0  0  0
   -0.3846   -1.0752    0.0000 C   0  0  0  0  0  0  0  0  0  0  0  0
   -0.3854   -0.0752    0.0000 C   0  0  0  0  0  0  0  0  0  0  0  0
    0.4802    0.4256    0.0000 C   0  0  0  0  0  0  0  0  0  0  0  0
    1.3466   -0.0738    0.0000 C   0  0  0  0  0  0  0  0  0  0  0  0
    1.3474   -1.0738    0.0000 C   0  0  0  0  0  0  0  0  0  0  0  0
    0.4818   -1.5744    0.0000 C   0  0  0  0  0  0  0  0  0  0  0  0
    2.2986   -1.3820    0.0000 C   0  0  0  0  0  0  0  0  0  0  0  0
    2.8858   -0.5724    0.0000 O   0  0  0  0  0  0  0  0  0  0  0  0
    2.2972    0.2360    0.0000 C   0  0  0  0  0  0  0  0  0  0  0  0
  1  2  1  0
  2  3  1  0
  3  4  2  0
  4  5  1  0
  5  6  2  0
  6  7  1  0
  7  8  2  0
  7  9  1  0
  9 10  1  0
 10 11  1  0
  8  3  1  0
 11  6  1  0
M  END

> <chembl_id>
CHEMBL4552011

> <chembl_pref_name>
None

$$$$

     RDKit          2D

 10 10  0  0  0  0  0  0  0  0999 V2000
    1.4930    0.8924    0.0000 C   0  0  0  0  0  0  0  0  0  0  0  0
    0.6260    0.3942    0.0000 C   0  0  0  0  0  0  0  0  0  0  0  0
    0.6240   -0.6058    0.0000 N   0  0  0  0  0  0  0  0  0  0  0  0
   -0.2432   -1.1040    0.0000 N   0  0  0  0  0  0  0  0  0  0  0  0
   -1.1082   -0.6024    0.0000 C   0  0  0  0  0  0  0  0  0  0  0  0
   -1.1062    0.3976    0.0000 C   0  0  0  0  0  0  0  0  0  0  0  0
   -1.9712    0.8994    0.0000 C   0  0  0  0  0  0  0  0  0  0  0  0
   -2.8382    0.4010    0.0000 N   0  0  0  0  0  0  0  0  0  0  0  0
   -0.2390    0.8958    0.0000 C   0  0  0  0  0  0  0  0  0  0  0  0
   -0.2370    1.8958    0.0000 C   0  0  0  0  0  0  0  0  0  0  0  0
  1  2  1  0
  2  3  2  0
  3  4  1  0
  4  5  2  0
  5  6  1  0
  6  7  1  0
  7  8  1  0
  6  9  2  0
  9 10  1  0
  9  2  1  0
M  END

> <chembl_id>
CHEMBL4513273

> <chembl_pref_name>
None

$$$$
 
     RDKit          2D

 10 10  0  0  0  0  0  0  0  0999 V2000
   22.9126  -13.9182    0.0000 C   0  0  0  0  0  0  0  0  0  0  0  0
   23.5610  -14.4156    0.0000 N   0  0  0  0  0  0  0  0  0  0  0  0
   24.2344  -13.9526    0.0000 C   0  0  0  0  0  0  0  0  0  0  0  0
   24.0022  -13.1691    0.0000 C   0  0  0  0  0  0  0  0  0  0  0  0
   23.1853  -13.1480    0.0000 C   0  0  0  0  0  0  0  0  0  0  0  0
   24.4995  -12.5207    0.0000 C   0  0  0  0  0  0  0  0  0  0  0  0
   25.3097  -12.6272    0.0000 O   0  0  0  0  0  0  0  0  0  0  0  0
   24.1866  -11.7658    0.0000 O   0  0  0  0  0  0  0  0  0  0  0  0
   25.0048  -14.2253    0.0000 C   0  0  0  0  0  0  0  0  0  0  0  0
   22.7223  -12.4746    0.0000 C   0  0  0  0  0  0  0  0  0  0  0  0
  1  2  1  0
  2  3  1  0
  3  4  2  0
  4  5  1  0
  5  1  2  0
  4  6  1  0
  6  7  1  0
  6  8  2  0
  3  9  1  0
  5 10  1  0
M  END

> <chembl_id>
CHEMBL4646068

> <chembl_pref_name>
None

$$$$

     RDKit          2D

  9  9  0  0  0  0  0  0  0  0999 V2000
   -3.6702   -0.4618    0.0000 C   0  0  0  0  0  0  0  0  0  0  0  0
   -2.8038    0.0372    0.0000 N   0  0  0  0  0  0  0  0  0  0  0  0
   -1.9384   -0.4638    0.0000 C   0  0  0  0  0  0  0  0  0  0  0  0
   -1.0718    0.0352    0.0000 C   0  0  0  0  0  0  0  0  0  0  0  0
   -0.9660    1.0296    0.0000 N   0  0  0  0  0  0  0  0  0  0  0  0
    0.0122    1.2364    0.0000 N   0  0  0  0  0  0  0  0  0  0  0  0
    0.5112    0.3698    0.0000 C   0  0  0  0  0  0  0  0  0  0  0  0
    1.5056    0.2642    0.0000 C   0  0  0  0  0  0  0  0  0  0  0  0
   -0.1586   -0.3726    0.0000 S   0  0  0  0  0  0  0  0  0  0  0  0
  1  2  1  0
  2  3  1  0
  3  4  1  0
  4  5  2  0
  5  6  1  0
  6  7  2  0
  7  8  1  0
  7  9  1  0
  9  4  1  0
M  END

> <chembl_id>
CHEMBL4572440

> <chembl_pref_name>
None

$$$$

     RDKit          2D

  8  8  0  0  0  0  0  0  0  0999 V2000
    1.2990   -0.7500    0.0000 N   0  0  0  0  0  0  0  0  0  0  0  0
   -2.5956    2.7031    0.0000 N   0  0  0  0  0  0  0  0  0  0  0  0
   -1.2990    0.7500    0.0000 C   0  0  0  0  0  0  0  0  0  0  0  0
    1.2990    0.7500    0.0000 C   0  0  0  0  0  0  0  0  0  0  0  0
    0.0000   -1.5000    0.0000 C   0  0  0  0  0  0  0  0  0  0  0  0
   -2.5973    1.5031    0.0000 C   0  0  0  0  0  0  0  0  0  0  0  0
   -1.2990   -0.7500    0.0000 C   0  0  0  0  0  0  0  0  0  0  0  0
    0.0000    1.5000    0.0000 C   0  0  0  0  0  0  0  0  0  0  0  0
  1  4  2  0
  1  5  1  0
  2  6  1  0
  3  6  1  0
  3  7  1  0
  5  7  2  0
  3  8  2  0
  4  8  1  0
M  END

> <chembl_id>
CHEMBL1188378

> <chembl_pref_name>
None

$$$$
 
     RDKit          2D

  9  9  0  0  0  0  0  0  0  0999 V2000
   11.0967  -11.4200    0.0000 N   0  0  0  0  0  0  0  0  0  0  0  0
   11.0956  -12.2395    0.0000 C   0  0  0  0  0  0  0  0  0  0  0  0
   11.8036  -12.6485    0.0000 C   0  0  0  0  0  0  0  0  0  0  0  0
   12.5133  -12.2391    0.0000 C   0  0  0  0  0  0  0  0  0  0  0  0
   12.5104  -11.4164    0.0000 N   0  0  0  0  0  0  0  0  0  0  0  0
   11.8018  -11.0111    0.0000 C   0  0  0  0  0  0  0  0  0  0  0  0
   10.3875  -12.6476    0.0000 C   0  0  0  0  0  0  0  0  0  0  0  0
   13.2216  -12.6466    0.0000 C   0  0  0  0  0  0  0  0  0  0  0  0
   11.7994  -10.1940    0.0000 N   0  0  0  0  0  0  0  0  0  0  0  0
  1  2  2  0
  2  3  1  0
  3  4  2  0
  4  5  1  0
  5  6  2  0
  6  1  1  0
  2  7  1  0
  4  8  1  0
  6  9  1  0
M  END

> <chembl_id>
CHEMBL4546836

> <chembl_pref_name>
None

$$$$

     RDKit          2D

  9  9  0  0  0  0  0  0  0  0999 V2000
   11.0275  -19.1316    0.0000 N   0  0  0  0  0  0  0  0  0  0  0  0
   11.0250  -19.9488    0.0000 C   0  0  0  0  0  0  0  0  0  0  0  0
   11.7328  -20.3597    0.0000 C   0  0  0  0  0  0  0  0  0  0  0  0
   11.7302  -21.1768    0.0000 C   0  0  0  0  0  0  0  0  0  0  0  0
   11.0198  -21.5832    0.0000 C   0  0  0  0  0  0  0  0  0  0  0  0
   10.3120  -21.1724    0.0000 N   0  0  0  0  0  0  0  0  0  0  0  0
   10.3146  -20.3552    0.0000 C   0  0  0  0  0  0  0  0  0  0  0  0
    9.6084  -19.9441    0.0000 O   0  0  0  0  0  0  0  0  0  0  0  0
    9.6113  -19.1269    0.0000 C   0  0  0  0  0  0  0  0  0  0  0  0
  1  2  1  0
  2  3  1  0
  3  4  2  0
  4  5  1  0
  5  6  2  0
  6  7  1  0
  2  7  2  0
  7  8  1  0
  8  9  1  0
M  END

> <chembl_id>
CHEMBL3277157

> <chembl_pref_name>
None

$$$$

     RDKit          2D

  9  9  0  0  0  0  0  0  0  0999 V2000
   -1.9288    0.2836    0.0000 C   0  0  0  0  0  0  0  0  0  0  0  0
   -1.0636   -0.2174    0.0000 C   0  0  0  0  0  0  0  0  0  0  0  0
   -0.1970    0.2816    0.0000 N   0  0  0  0  0  0  0  0  0  0  0  0
    0.7162   -0.1262    0.0000 C   0  0  0  0  0  0  0  0  0  0  0  0
    1.3860    0.6162    0.0000 C   0  0  0  0  0  0  0  0  0  0  0  0
    2.3804    0.5106    0.0000 C   0  0  0  0  0  0  0  0  0  0  0  0
    2.9692    1.3188    0.0000 N   0  0  0  0  0  0  0  0  0  0  0  0
    0.8870    1.4828    0.0000 C   0  0  0  0  0  0  0  0  0  0  0  0
   -0.0914    1.2760    0.0000 N   0  0  0  0  0  0  0  0  0  0  0  0
  1  2  1  0
  2  3  1  0
  3  4  1  0
  4  5  2  0
  5  6  1  0
  6  7  1  0
  5  8  1  0
  8  9  2  0
  9  3  1  0
M  END

> <chembl_id>
CHEMBL4530486

> <chembl_pref_name>
None

$$$$
 
     RDKit          2D

 10 10  0  0  0  0  0  0  0  0999 V2000
   18.6768  -18.8364    0.0000 N   0  0  0  0  0  0  0  0  0  0  0  0
   18.6757  -19.6635    0.0000 C   0  0  0  0  0  0  0  0  0  0  0  0
   19.3901  -20.0761    0.0000 C   0  0  0  0  0  0  0  0  0  0  0  0
   20.1062  -19.6630    0.0000 C   0  0  0  0  0  0  0  0  0  0  0  0
   20.1033  -18.8328    0.0000 N   0  0  0  0  0  0  0  0  0  0  0  0
   19.3883  -18.4239    0.0000 C   0  0  0  0  0  0  0  0  0  0  0  0
   19.3859  -17.5993    0.0000 C   0  0  0  0  0  0  0  0  0  0  0  0
   20.0988  -17.1849    0.0000 O   0  0  0  0  0  0  0  0  0  0  0  0
   18.6706  -17.1892    0.0000 N   0  0  0  0  0  0  0  0  0  0  0  0
   18.6680  -16.3646    0.0000 N   0  0  0  0  0  0  0  0  0  0  0  0
  1  2  2  0
  2  3  1  0
  3  4  2  0
  4  5  1  0
  5  6  2  0
  6  1  1  0
  6  7  1  0
  7  8  2  0
  7  9  1  0
  9 10  1  0
M  END

> <chembl_id>
CHEMBL4857151

> <chembl_pref_name>
None

$$$$

     RDKit          2D

 10 10  0  0  0  0  0  0  0  0999 V2000
    0.7500   -1.0323    0.0000 N   0  0  0  0  0  0  0  0  0  0  0  0
    1.2135    0.3943    0.0000 C   0  0  0  0  0  0  0  0  0  0  0  0
    0.0000    1.2760    0.0000 C   0  0  0  0  0  0  0  0  0  0  0  0
   -1.2135    0.3943    0.0000 N   0  0  0  0  0  0  0  0  0  0  0  0
   -0.7500   -1.0323    0.0000 C   0  0  0  0  0  0  0  0  0  0  0  0
   -1.4553   -2.0031    0.0000 N   0  0  0  0  0  0  0  0  0  0  0  0
   -0.0031    2.7742    0.0000 C   0  0  0  0  0  0  0  0  0  0  0  0
   -1.3040    3.5228    0.0000 C   0  0  0  0  0  0  0  0  0  0  0  0
   -1.3071    5.0236    0.0000 C   0  0  0  0  0  0  0  0  0  0  0  0
   -2.3472    5.6221    0.0000 N   0  0  0  0  0  0  0  0  0  0  0  0
  1  2  1  0
  2  3  2  0
  3  4  1  0
  4  5  2  0
  5  1  1  0
  5  6  1  0
  3  7  1  0
  7  8  1  0
  8  9  1  0
  9 10  1  0
M  END

> <chembl_id>
CHEMBL3622404

> <chembl_pref_name>
None

$$$$

     RDKit          2D

  8  8  0  0  0  0  0  0  0  0999 V2000
   -2.6396   -0.5864    0.0000 N   0  0  0  0  0  0  0  0  0  0  0  0
   -1.7730   -0.0874    0.0000 C   0  0  0  0  0  0  0  0  0  0  0  0
   -0.9076   -0.5882    0.0000 C   0  0  0  0  0  0  0  0  0  0  0  0
   -0.0412   -0.0892    0.0000 C   0  0  0  0  0  0  0  0  0  0  0  0
    0.8720   -0.4970    0.0000 C   0  0  0  0  0  0  0  0  0  0  0  0
    1.5418    0.2454    0.0000 C   0  0  0  0  0  0  0  0  0  0  0  0
    1.0430    1.1120    0.0000 S   0  0  0  0  0  0  0  0  0  0  0  0
    0.0646    0.9050    0.0000 C   0  0  0  0  0  0  0  0  0  0  0  0
  1  2  1  0
  2  3  1  0
  3  4  1  0
  4  5  1  0
  5  6  2  0
  6  7  1  0
  7  8  1  0
  8  4  2  0
M  END

> <chembl_id>
CHEMBL4555465

> <chembl_pref_name>
None

$$$$

     RDKit          2D

 10 10  0  0  0  0  0  0  0  0999 V2000
    0.9580    1.8898    0.0000 C   0  0  0  0  0  0  0  0  0  0  0  0
    0.9572    0.8898    0.0000 C   0  0  0  0  0  0  0  0  0  0  0  0
    1.8228    0.3890    0.0000 C   0  0  0  0  0  0  0  0  0  0  0  0
    1.8220   -0.6110    0.0000 N   0  0  0  0  0  0  0  0  0  0  0  0
    0.9556   -1.1102    0.0000 C   0  0  0  0  0  0  0  0  0  0  0  0
    0.0900   -0.6096    0.0000 C   0  0  0  0  0  0  0  0  0  0  0  0
   -0.7764   -1.1090    0.0000 C   0  0  0  0  0  0  0  0  0  0  0  0
   -0.7772   -2.1090    0.0000 N   0  0  0  0  0  0  0  0  0  0  0  0
   -1.6420   -0.6082    0.0000 O   0  0  0  0  0  0  0  0  0  0  0  0
    0.0908    0.3904    0.0000 C   0  0  0  0  0  0  0  0  0  0  0  0
  1  2  1  0
  2  3  2  0
  3  4  1  0
  4  5  2  0
  5  6  1  0
  6  7  1  0
  7  8  1  0
  7  9  2  0
  6 10  2  0
 10  2  1  0
M  END

> <chembl_id>
CHEMBL4544263

> <chembl_pref_name>
None

$$$$

     RDKit          2D

  9 10  0  0  0  0  0  0  0  0999 V2000
    2.3523    0.0000    0.0000 C   0  0  0  0  0  0  0  0  0  0  0  0
    2.9401    0.8090    0.0000 C   0  0  0  0  0  0  0  0  0  0  0  0
    2.5334    1.7226    0.0000 N   0  0  0  0  0  0  0  0  0  0  0  0
    1.5388    1.8271    0.0000 C   0  0  0  0  0  0  0  0  0  0  0  0
    0.9511    2.6361    0.0000 C   0  0  0  0  0  0  0  0  0  0  0  0
    0.0000    2.3271    0.0000 N   0  0  0  0  0  0  0  0  0  0  0  0
    0.0000    1.3271    0.0000 C   0  0  0  0  0  0  0  0  0  0  0  0
    0.9511    1.0181    0.0000 C   0  0  0  0  0  0  0  0  0  0  0  0
    1.3578    0.1045    0.0000 C   0  0  0  0  0  0  0  0  0  0  0  0
  1  2  2  0
  2  3  1  0
  3  4  2  0
  4  5  1  0
  5  6  1  0
  6  7  1  0
  7  8  1  0
  8  4  1  0
  8  9  2  0
  9  1  1  0
M  END

> <chembl_id>
CHEMBL4788728

> <chembl_pref_name>
None

$$$$

     RDKit          2D

 10 10  0  0  0  0  0  0  0  0999 V2000
    9.5932  -24.9963    0.0000 C   0  0  0  0  0  0  0  0  0  0  0  0
   10.4145  -25.0052    0.0000 N   0  0  0  0  0  0  0  0  0  0  0  0
   10.6773  -24.2272    0.0000 N   0  0  0  0  0  0  0  0  0  0  0  0
   10.0155  -23.7378    0.0000 C   0  0  0  0  0  0  0  0  0  0  0  0
    9.3474  -24.2127    0.0000 O   0  0  0  0  0  0  0  0  0  0  0  0
   10.0232  -22.9166    0.0000 O   0  0  0  0  0  0  0  0  0  0  0  0
    9.1016  -25.6541    0.0000 C   0  0  0  0  0  0  0  0  0  0  0  0
    8.2859  -25.5586    0.0000 C   0  0  0  0  0  0  0  0  0  0  0  0
    7.7933  -26.2179    0.0000 C   0  0  0  0  0  0  0  0  0  0  0  0
    7.9628  -24.8039    0.0000 C   0  0  0  0  0  0  0  0  0  0  0  0
  1  2  2  0
  2  3  1  0
  3  4  1  0
  4  5  1  0
  5  1  1  0
  4  6  2  0
  1  7  1  0
  7  8  1  0
  8  9  1  0
  8 10  1  0
M  END

> <chembl_id>
CHEMBL4061104

> <chembl_pref_name>
None

$$$$
 
     RDKit          2D

  9  9  0  0  0  0  0  0  0  0999 V2000
    6.1179   -6.7682    0.0000 C   0  0  0  0  0  0  0  0  0  0  0  0
    6.8325   -6.3559    0.0000 C   0  0  0  0  0  0  0  0  0  0  0  0
    7.5444   -6.7679    0.0000 C   0  0  0  0  0  0  0  0  0  0  0  0
    7.5444   -7.5930    0.0000 C   0  0  0  0  0  0  0  0  0  0  0  0
    6.8343   -8.0048    0.0000 C   0  0  0  0  0  0  0  0  0  0  0  0
    6.1179   -7.5968    0.0000 C   0  0  0  0  0  0  0  0  0  0  0  0
    5.4032   -8.0093    0.0000 F   0  0  0  0  0  0  0  0  0  0  0  0
    6.8343   -8.8300    0.0000 F   0  0  0  0  0  0  0  0  0  0  0  0
    6.8325   -5.5307    0.0000 N   0  0  0  0  0  0  0  0  0  0  0  0
  2  1  2  0
  3  2  1  0
  4  3  2  0
  5  4  1  0
  6  5  2  0
  1  6  1  0
  6  7  1  0
  5  8  1  0
  2  9  1  0
M  END

> <chembl_id>
CHEMBL4643049

> <chembl_pref_name>
None

$$$$

     RDKit          2D

  9  9  0  0  0  0  0  0  0  0999 V2000
    2.1427    0.0000    0.0000 O   0  0  0  0  0  0  0  0  0  0  0  0
    0.7181   -2.4918    0.0000 N   0  0  0  0  0  0  0  0  0  0  0  0
    1.4362   -1.2444    0.0000 C   0  0  0  0  0  0  0  0  0  0  0  0
    2.1427   -0.8383    0.0000 C   0  0  0  0  0  0  0  0  0  0  0  0
    1.4362   -2.0741    0.0000 C   0  0  0  0  0  0  0  0  0  0  0  0
    0.7181   -0.8383    0.0000 C   0  0  0  0  0  0  0  0  0  0  0  0
    0.0000   -1.2444    0.0000 C   0  0  0  0  0  0  0  0  0  0  0  0
    0.0000   -2.0741    0.0000 C   0  0  0  0  0  0  0  0  0  0  0  0
    2.8608   -1.2444    0.0000 C   0  0  0  0  0  0  0  0  0  0  0  0
  1  4  2  0
  2  5  1  0
  2  8  2  0
  3  4  1  0
  3  5  2  0
  3  6  1  0
  4  9  1  0
  6  7  2  0
  7  8  1  0
M  END

> <chembl_id>
CHEMBL3187172

> <chembl_pref_name>
None

$$$$

     RDKit          2D

 10 10  0  0  0  0  0  0  0  0999 V2000
    0.3570   -2.6676    0.0000 C   0  0  0  0  0  0  0  0  0  0  0  0
   -0.5100   -2.1694    0.0000 C   0  0  0  0  0  0  0  0  0  0  0  0
   -0.5120   -1.1694    0.0000 N   0  0  0  0  0  0  0  0  0  0  0  0
    0.3530   -0.6676    0.0000 C   0  0  0  0  0  0  0  0  0  0  0  0
    0.3510    0.3322    0.0000 C   0  0  0  0  0  0  0  0  0  0  0  0
   -0.5162    0.8306    0.0000 C   0  0  0  0  0  0  0  0  0  0  0  0
   -0.5182    1.8306    0.0000 O   0  0  0  0  0  0  0  0  0  0  0  0
   -1.3812    0.3288    0.0000 N   0  0  0  0  0  0  0  0  0  0  0  0
   -1.3792   -0.6712    0.0000 C   0  0  0  0  0  0  0  0  0  0  0  0
   -2.2442   -1.1728    0.0000 O   0  0  0  0  0  0  0  0  0  0  0  0
  1  2  1  0
  2  3  1  0
  3  4  1  0
  4  5  2  0
  5  6  1  0
  6  7  2  0
  6  8  1  0
  8  9  1  0
  9 10  2  0
  9  3  1  0
M  END

> <chembl_id>
CHEMBL4574914

> <chembl_pref_name>
None

$$$$

     RDKit          2D

  9  9  0  0  0  0  0  0  0  0999 V2000
    2.3052    1.7162    0.0000 C   0  0  0  0  0  0  0  0  0  0  0  0
    1.4360    1.2216    0.0000 C   0  0  0  0  0  0  0  0  0  0  0  0
    0.5732    1.7272    0.0000 C   0  0  0  0  0  0  0  0  0  0  0  0
   -0.2960    1.2328    0.0000 C   0  0  0  0  0  0  0  0  0  0  0  0
   -0.3024    0.2328    0.0000 C   0  0  0  0  0  0  0  0  0  0  0  0
   -1.1716   -0.2616    0.0000 C   0  0  0  0  0  0  0  0  0  0  0  0
   -2.0344    0.2440    0.0000 N   0  0  0  0  0  0  0  0  0  0  0  0
    0.5604   -0.2728    0.0000 N   0  0  0  0  0  0  0  0  0  0  0  0
    1.4296    0.2218    0.0000 C   0  0  0  0  0  0  0  0  0  0  0  0
  1  2  1  0
  2  3  2  0
  3  4  1  0
  4  5  2  0
  5  6  1  0
  6  7  1  0
  5  8  1  0
  8  9  2  0
  9  2  1  0
M  END

> <chembl_id>
CHEMBL4514296

> <chembl_pref_name>
None

$$$$

     RDKit          2D

  8  8  0  0  0  0  0  0  0  0999 V2000
   -2.6396   -0.5864    0.0000 C   0  0  0  0  0  0  0  0  0  0  0  0
   -1.7730   -0.0874    0.0000 N   0  0  0  0  0  0  0  0  0  0  0  0
   -0.9076   -0.5882    0.0000 C   0  0  0  0  0  0  0  0  0  0  0  0
   -0.0412   -0.0892    0.0000 C   0  0  0  0  0  0  0  0  0  0  0  0
    0.8720   -0.4970    0.0000 N   0  0  0  0  0  0  0  0  0  0  0  0
    1.5418    0.2454    0.0000 C   0  0  0  0  0  0  0  0  0  0  0  0
    1.0430    1.1120    0.0000 O   0  0  0  0  0  0  0  0  0  0  0  0
    0.0646    0.9050    0.0000 N   0  0  0  0  0  0  0  0  0  0  0  0
  1  2  1  0
  2  3  1  0
  3  4  1  0
  4  5  1  0
  5  6  2  0
  6  7  1  0
  7  8  1  0
  8  4  2  0
M  END

> <chembl_id>
CHEMBL4591802

> <chembl_pref_name>
None

$$$$

     RDKit          2D

 10 11  0  0  0  0  0  0  0  0999 V2000
    1.1580    1.9206    0.0000 C   0  0  0  0  0  0  0  0  0  0  0  0
    0.9504    0.9424    0.0000 C   0  0  0  0  0  0  0  0  0  0  0  0
   -0.0440    0.8376    0.0000 C   0  0  0  0  0  0  0  0  0  0  0  0
   -0.5438   -0.0286    0.0000 C   0  0  0  0  0  0  0  0  0  0  0  0
   -1.5382   -0.1334    0.0000 C   0  0  0  0  0  0  0  0  0  0  0  0
   -1.7458   -1.1116    0.0000 C   0  0  0  0  0  0  0  0  0  0  0  0
   -0.8796   -1.6114    0.0000 C   0  0  0  0  0  0  0  0  0  0  0  0
   -0.1368   -0.9420    0.0000 N   0  0  0  0  0  0  0  0  0  0  0  0
   -0.4510    1.7510    0.0000 N   0  0  0  0  0  0  0  0  0  0  0  0
    0.2918    2.4204    0.0000 N   0  0  0  0  0  0  0  0  0  0  0  0
  1  2  2  0
  2  3  1  0
  3  4  1  0
  4  5  1  0
  5  6  1  0
  6  7  1  0
  7  8  1  0
  3  9  2  0
  9 10  1  0
 10  1  1  0
  8  4  1  0
M  END

> <chembl_id>
CHEMBL4551873

> <chembl_pref_name>
None

$$$$

     RDKit          2D

 10 10  0  0  0  0  0  0  0  0999 V2000
   -7.8596    3.6536    0.0000 C   0  0  0  0  0  0  0  0  0  0  0  0
   -8.5741    4.0661    0.0000 C   0  0  0  0  0  0  0  0  0  0  0  0
   -9.2886    3.6536    0.0000 C   0  0  0  0  0  0  0  0  0  0  0  0
   -9.2886    2.8286    0.0000 C   0  0  0  0  0  0  0  0  0  0  0  0
   -8.5741    2.4161    0.0000 N   0  0  0  0  0  0  0  0  0  0  0  0
   -7.8596    2.8286    0.0000 C   0  0  0  0  0  0  0  0  0  0  0  0
   -7.1451    4.0661    0.0000 C   0  0  0  0  0  0  0  0  0  0  0  0
   -6.4307    3.6536    0.0000 O   0  0  0  0  0  0  0  0  0  0  0  0
   -7.1451    4.8911    0.0000 N   0  0  0  0  0  0  0  0  0  0  0  0
   -8.5741    1.5911    0.0000 O   0  0  0  0  0  0  0  0  0  0  0  0
  1  2  1  0
  2  3  2  0
  3  4  1  0
  4  5  2  0
  5  6  1  0
  6  1  2  0
  1  7  1  0
  7  8  2  0
  7  9  1  0
  5 10  1  0
M  CHG  2   5   1  10  -1
M  END

> <chembl_id>
CHEMBL3542327

> <chembl_pref_name>
None

$$$$

     RDKit          2D

  8  8  0  0  0  0  0  0  0  0999 V2000
    1.1081   -2.4229    0.0000 N   0  0  0  0  0  0  0  0  0  0  0  0
    3.1487   -0.2866    0.0000 N   0  0  0  0  0  0  0  0  0  0  0  0
    1.7772   -1.1541    0.0000 C   0  0  0  0  0  0  0  0  0  0  0  0
    1.8053   -1.9819    0.0000 C   0  0  0  0  0  0  0  0  0  0  0  0
    1.0412   -0.7738    0.0000 C   0  0  0  0  0  0  0  0  0  0  0  0
    0.3440   -1.2148    0.0000 C   0  0  0  0  0  0  0  0  0  0  0  0
    2.4717   -0.7148    0.0000 C   0  0  0  0  0  0  0  0  0  0  0  0
    0.3828   -2.0360    0.0000 C   0  0  0  0  0  0  0  0  0  0  0  0
  1  4  1  0
  1  8  2  0
  2  7  3  0
  3  4  2  0
  3  5  1  0
  3  7  1  0
  5  6  2  0
  6  8  1  0
M  END

> <chembl_id>
CHEMBL3181972

> <chembl_pref_name>
None

$$$$

     RDKit          2D

 10 10  0  0  0  0  0  0  0  0999 V2000
    0.3594   -1.4034    0.0000 C   0  0  0  0  0  0  0  0  0  0  0  0
    0.1476   -0.4260    0.0000 C   0  0  0  0  0  0  0  0  0  0  0  0
    0.8140    0.3196    0.0000 N   0  0  0  0  0  0  0  0  0  0  0  0
    0.3104    1.1836    0.0000 N   0  0  0  0  0  0  0  0  0  0  0  0
   -0.6668    0.9720    0.0000 C   0  0  0  0  0  0  0  0  0  0  0  0
   -1.4126    1.6382    0.0000 O   0  0  0  0  0  0  0  0  0  0  0  0
   -0.7674   -0.0230    0.0000 C   0  0  0  0  0  0  0  0  0  0  0  0
   -1.6314   -0.5264    0.0000 C   0  0  0  0  0  0  0  0  0  0  0  0
   -2.4996   -0.0300    0.0000 C   0  0  0  0  0  0  0  0  0  0  0  0
   -3.3636   -0.5334    0.0000 N   0  0  0  0  0  0  0  0  0  0  0  0
  1  2  1  0
  2  3  1  0
  3  4  1  0
  4  5  1  0
  5  6  2  0
  5  7  1  0
  7  8  1  0
  8  9  1  0
  9 10  1  0
  7  2  2  0
M  END

> <chembl_id>
CHEMBL4527979

> <chembl_pref_name>
None

$$$$

     RDKit          2D

 10 10  0  0  0  0  0  0  0  0999 V2000
    0.7806    2.9538    0.0000 C   0  0  0  0  0  0  0  0  0  0  0  0
   -0.0864    2.4556    0.0000 O   0  0  0  0  0  0  0  0  0  0  0  0
   -0.0884    1.4556    0.0000 C   0  0  0  0  0  0  0  0  0  0  0  0
    0.7766    0.9540    0.0000 C   0  0  0  0  0  0  0  0  0  0  0  0
    0.7746   -0.0460    0.0000 C   0  0  0  0  0  0  0  0  0  0  0  0
   -0.0926   -0.5442    0.0000 C   0  0  0  0  0  0  0  0  0  0  0  0
   -0.9576   -0.0426    0.0000 C   0  0  0  0  0  0  0  0  0  0  0  0
   -1.8246   -0.5408    0.0000 C   0  0  0  0  0  0  0  0  0  0  0  0
   -1.8266   -1.5408    0.0000 N   0  0  0  0  0  0  0  0  0  0  0  0
   -0.9556    0.9574    0.0000 N   0  0  0  0  0  0  0  0  0  0  0  0
  1  2  1  0
  2  3  1  0
  3  4  2  0
  4  5  1  0
  5  6  2  0
  6  7  1  0
  7  8  1  0
  8  9  1  0
  7 10  2  0
 10  3  1  0
M  END

> <chembl_id>
CHEMBL4587886

> <chembl_pref_name>
None

$$$$

     RDKit          2D

  9  9  0  0  0  0  0  0  0  0999 V2000
    2.7744   -0.2274    0.0000 C   0  0  0  0  0  0  0  0  0  0  0  0
    1.9352    0.3162    0.0000 C   0  0  0  0  0  0  0  0  0  0  0  0
    1.9864    1.3148    0.0000 O   0  0  0  0  0  0  0  0  0  0  0  0
    1.0446   -0.1388    0.0000 C   0  0  0  0  0  0  0  0  0  0  0  0
    0.8894   -1.1266    0.0000 C   0  0  0  0  0  0  0  0  0  0  0  0
   -0.0980   -1.2844    0.0000 C   0  0  0  0  0  0  0  0  0  0  0  0
   -0.5530   -0.3940    0.0000 N   0  0  0  0  0  0  0  0  0  0  0  0
   -1.5408   -0.2388    0.0000 C   0  0  0  0  0  0  0  0  0  0  0  0
    0.1532    0.3140    0.0000 N   0  0  0  0  0  0  0  0  0  0  0  0
  1  2  1  0
  2  3  2  0
  2  4  1  0
  4  5  1  0
  5  6  2  0
  6  7  1  0
  7  8  1  0
  7  9  1  0
  9  4  2  0
M  END

> <chembl_id>
CHEMBL4525292

> <chembl_pref_name>
None

$$$$
 
     RDKit          2D

 10 10  0  0  0  0  0  0  0  0999 V2000
    3.1243  -18.5636    0.0000 C   0  0  0  0  0  0  0  0  0  0  0  0
    3.9438  -18.5578    0.0000 C   0  0  0  0  0  0  0  0  0  0  0  0
    4.3489  -17.8458    0.0000 C   0  0  0  0  0  0  0  0  0  0  0  0
    3.9314  -17.1390    0.0000 C   0  0  0  0  0  0  0  0  0  0  0  0
    3.1088  -17.1488    0.0000 N   0  0  0  0  0  0  0  0  0  0  0  0
    2.7116  -17.8613    0.0000 C   0  0  0  0  0  0  0  0  0  0  0  0
    1.8903  -17.8707    0.0000 N   0  0  0  0  0  0  0  0  0  0  0  0
    5.1744  -17.8406    0.0000 N   0  0  0  0  0  0  0  0  0  0  0  0
    5.5771  -17.1255    0.0000 O   0  0  0  0  0  0  0  0  0  0  0  0
    5.5888  -18.5491    0.0000 O   0  0  0  0  0  0  0  0  0  0  0  0
  1  2  2  0
  2  3  1  0
  3  4  2  0
  4  5  1  0
  5  6  2  0
  6  1  1  0
  6  7  1  0
  8  9  2  0
  8 10  1  0
  3  8  1  0
M  CHG  2   8   1  10  -1
M  END

> <chembl_id>
CHEMBL4447423

> <chembl_pref_name>
None

$$$$

     RDKit          2D

  8  8  0  0  0  0  0  0  0  0999 V2000
   12.3595  -13.7871    0.0000 C   0  0  0  0  0  0  0  0  0  0  0  0
   13.0283  -14.2566    0.0000 N   0  0  0  0  0  0  0  0  0  0  0  0
   13.6828  -13.7671    0.0000 C   0  0  0  0  0  0  0  0  0  0  0  0
   13.4173  -12.9916    0.0000 C   0  0  0  0  0  0  0  0  0  0  0  0
   12.6011  -13.0077    0.0000 C   0  0  0  0  0  0  0  0  0  0  0  0
   14.4636  -14.0081    0.0000 C   0  0  0  0  0  0  0  0  0  0  0  0
   14.6453  -14.8049    0.0000 O   0  0  0  0  0  0  0  0  0  0  0  0
   15.0628  -13.4524    0.0000 N   0  0  0  0  0  0  0  0  0  0  0  0
  1  2  1  0
  2  3  1  0
  3  4  2  0
  4  5  1  0
  5  1  2  0
  3  6  1  0
  6  7  2  0
  6  8  1  0
M  END

> <chembl_id>
CHEMBL4060005

> <chembl_pref_name>
None

$$$$
 
     RDKit          2D

 11 11  0  0  0  0  0  0  0  0999 V2000
    3.4489  -10.0374    0.0000 C   0  0  0  0  0  0  0  0  0  0  0  0
    3.4478  -10.8569    0.0000 C   0  0  0  0  0  0  0  0  0  0  0  0
    4.1558  -11.2659    0.0000 C   0  0  0  0  0  0  0  0  0  0  0  0
    4.8655  -10.8564    0.0000 C   0  0  0  0  0  0  0  0  0  0  0  0
    4.8627  -10.0338    0.0000 C   0  0  0  0  0  0  0  0  0  0  0  0
    4.1541   -9.6285    0.0000 C   0  0  0  0  0  0  0  0  0  0  0  0
    2.7411   -9.6290    0.0000 C   0  0  0  0  0  0  0  0  0  0  0  0
    5.5688   -9.6225    0.0000 C   0  0  0  0  0  0  0  0  0  0  0  0
    6.2781  -10.0285    0.0000 C   0  0  0  0  0  0  0  0  0  0  0  0
    6.9842   -9.6172    0.0000 N   0  0  0  0  0  0  0  0  0  0  0  0
    6.2812  -10.8456    0.0000 O   0  0  0  0  0  0  0  0  0  0  0  0
  1  2  2  0
  2  3  1  0
  3  4  2  0
  4  5  1  0
  5  6  2  0
  6  1  1  0
  1  7  1  0
  5  8  1  0
  8  9  1  0
  9 10  1  0
  9 11  2  0
M  END

> <chembl_id>
CHEMBL4786733

> <chembl_pref_name>
None

$$$$
 
     RDKit          2D

  9  9  0  0  0  0  0  0  0  0999 V2000
   19.7991  -12.6869    0.0000 C   0  0  0  0  0  0  0  0  0  0  0  0
   17.1826  -11.4328    0.0000 S   0  0  0  0  0  0  0  0  0  0  0  0
   18.0074  -11.4328    0.0000 C   0  0  0  0  0  0  0  0  0  0  0  0
   18.2642  -10.6487    0.0000 C   0  0  0  0  0  0  0  0  0  0  0  0
   17.5950  -10.1662    0.0000 C   0  0  0  0  0  0  0  0  0  0  0  0
   16.9300  -10.6487    0.0000 C   0  0  0  0  0  0  0  0  0  0  0  0
   18.4916  -12.1008    0.0000 C   0  0  0  0  0  0  0  0  0  0  0  0
   19.3121  -12.0156    0.0000 N   0  0  0  0  0  0  0  0  0  0  0  0
   19.6486  -11.2623    0.0000 O   0  0  0  0  0  0  0  0  0  0  0  0
  2  3  1  0
  3  4  2  0
  4  5  1  0
  5  6  2  0
  6  2  1  0
  3  7  1  0
  7  8  2  0
  8  9  1  0
  8  1  1  0
M  CHG  2   8   1   9  -1
M  END

> <chembl_id>
CHEMBL4861994

> <chembl_pref_name>
None

$$$$
 
     RDKit          2D

  7  7  0  0  0  0  0  0  0  0999 V2000
   35.7707  -18.1433    0.0000 C   0  0  0  0  0  0  0  0  0  0  0  0
   36.5878  -18.1433    0.0000 N   0  0  0  0  0  0  0  0  0  0  0  0
   36.8422  -17.3666    0.0000 C   0  0  0  0  0  0  0  0  0  0  0  0
   36.1793  -16.8845    0.0000 S   0  0  0  0  0  0  0  0  0  0  0  0
   35.5205  -17.3666    0.0000 C   0  0  0  0  0  0  0  0  0  0  0  0
   37.6198  -17.1152    0.0000 C   0  0  0  0  0  0  0  0  0  0  0  0
   38.3960  -16.8599    0.0000 N   0  0  0  0  0  0  0  0  0  0  0  0
  1  2  1  0
  2  3  2  0
  3  4  1  0
  4  5  1  0
  5  1  2  0
  3  6  1  0
  6  7  3  0
M  END

> <chembl_id>
CHEMBL4534009

> <chembl_pref_name>
None

$$$$

     RDKit          2D

  9  9  0  0  0  0  0  0  0  0999 V2000
   -2.6702   -0.4618    0.0000 C   0  0  0  0  0  0  0  0  0  0  0  0
   -1.8038    0.0372    0.0000 N   0  0  0  0  0  0  0  0  0  0  0  0
   -0.9384   -0.4638    0.0000 C   0  0  0  0  0  0  0  0  0  0  0  0
   -0.0718    0.0352    0.0000 C   0  0  0  0  0  0  0  0  0  0  0  0
    0.8414   -0.3726    0.0000 N   0  0  0  0  0  0  0  0  0  0  0  0
    1.5112    0.3698    0.0000 C   0  0  0  0  0  0  0  0  0  0  0  0
    2.5056    0.2642    0.0000 C   0  0  0  0  0  0  0  0  0  0  0  0
    1.0122    1.2364    0.0000 N   0  0  0  0  0  0  0  0  0  0  0  0
    0.0340    1.0296    0.0000 O   0  0  0  0  0  0  0  0  0  0  0  0
  1  2  1  0
  2  3  1  0
  3  4  1  0
  4  5  2  0
  5  6  1  0
  6  7  1  0
  6  8  2  0
  8  9  1  0
  9  4  1  0
M  END

> <chembl_id>
CHEMBL4519594

> <chembl_pref_name>
None

$$$$
 
     RDKit          2D

 10 10  0  0  0  0  0  0  0  0999 V2000
   11.3443  -11.3251    0.0000 C   0  0  0  0  0  0  0  0  0  0  0  0
   11.3432  -12.1446    0.0000 C   0  0  0  0  0  0  0  0  0  0  0  0
   12.0512  -12.5536    0.0000 C   0  0  0  0  0  0  0  0  0  0  0  0
   12.7609  -12.1441    0.0000 C   0  0  0  0  0  0  0  0  0  0  0  0
   12.7581  -11.3215    0.0000 C   0  0  0  0  0  0  0  0  0  0  0  0
   12.0494  -10.9162    0.0000 C   0  0  0  0  0  0  0  0  0  0  0  0
   12.0470  -10.0990    0.0000 C   0  0  0  0  0  0  0  0  0  0  0  0
   12.7535   -9.6883    0.0000 F   0  0  0  0  0  0  0  0  0  0  0  0
   11.3381   -9.6925    0.0000 F   0  0  0  0  0  0  0  0  0  0  0  0
   12.0510  -13.3708    0.0000 C   0  0  0  0  0  0  0  0  0  0  0  0
  1  2  2  0
  2  3  1  0
  3  4  2  0
  4  5  1  0
  5  6  2  0
  6  1  1  0
  6  7  1  0
  7  8  1  0
  7  9  1  0
  3 10  1  0
M  END

> <chembl_id>
CHEMBL4466255

> <chembl_pref_name>
None

$$$$

     RDKit          2D

  9  9  0  0  0  0  0  0  0  0999 V2000
    2.7750   -0.1252    0.0000 N   0  0  0  0  0  0  0  0  0  0  0  0
    1.9096    0.3758    0.0000 C   0  0  0  0  0  0  0  0  0  0  0  0
    1.9110    1.3758    0.0000 O   0  0  0  0  0  0  0  0  0  0  0  0
    1.0432   -0.1232    0.0000 C   0  0  0  0  0  0  0  0  0  0  0  0
    0.9374   -1.1176    0.0000 C   0  0  0  0  0  0  0  0  0  0  0  0
   -0.0410   -1.3244    0.0000 N   0  0  0  0  0  0  0  0  0  0  0  0
   -0.5400   -0.4578    0.0000 C   0  0  0  0  0  0  0  0  0  0  0  0
   -1.5342   -0.3522    0.0000 N   0  0  0  0  0  0  0  0  0  0  0  0
    0.1300    0.2844    0.0000 S   0  0  0  0  0  0  0  0  0  0  0  0
  1  2  1  0
  2  3  2  0
  2  4  1  0
  4  5  2  0
  5  6  1  0
  6  7  2  0
  7  8  1  0
  7  9  1  0
  9  4  1  0
M  END

> <chembl_id>
CHEMBL4569460

> <chembl_pref_name>
None

$$$$

     RDKit          2D

 10 10  0  0  0  0  0  0  0  0999 V2000
    2.4906   -0.3818    0.0000 C   0  0  0  0  0  0  0  0  0  0  0  0
    1.6228    0.1150    0.0000 C   0  0  0  0  0  0  0  0  0  0  0  0
    1.6192    1.1150    0.0000 C   0  0  0  0  0  0  0  0  0  0  0  0
    0.7514    1.6120    0.0000 C   0  0  0  0  0  0  0  0  0  0  0  0
   -0.1128    1.1088    0.0000 C   0  0  0  0  0  0  0  0  0  0  0  0
   -0.1092    0.1088    0.0000 C   0  0  0  0  0  0  0  0  0  0  0  0
   -0.9734   -0.3942    0.0000 C   0  0  0  0  0  0  0  0  0  0  0  0
   -1.8412    0.1026    0.0000 C   0  0  0  0  0  0  0  0  0  0  0  0
   -2.7054   -0.4004    0.0000 O   0  0  0  0  0  0  0  0  0  0  0  0
    0.7586   -0.3880    0.0000 C   0  0  0  0  0  0  0  0  0  0  0  0
  1  2  1  0
  2  3  2  0
  3  4  1  0
  4  5  2  0
  5  6  1  0
  6  7  1  0
  7  8  1  0
  8  9  1  0
  6 10  2  0
 10  2  1  0
M  END

> <chembl_id>
CHEMBL4585079

> <chembl_pref_name>
None

$$$$

     RDKit          2D

 10 10  0  0  0  0  0  0  0  0999 V2000
   -3.7330   -0.3452    0.0000 C   0  0  0  0  0  0  0  0  0  0  0  0
   -2.8664    0.1538    0.0000 C   0  0  0  0  0  0  0  0  0  0  0  0
   -2.0010   -0.3472    0.0000 C   0  0  0  0  0  0  0  0  0  0  0  0
   -1.1344    0.1518    0.0000 N   0  0  0  0  0  0  0  0  0  0  0  0
   -1.0288    1.1460    0.0000 C   0  0  0  0  0  0  0  0  0  0  0  0
   -0.0504    1.3530    0.0000 C   0  0  0  0  0  0  0  0  0  0  0  0
    0.4486    0.4864    0.0000 C   0  0  0  0  0  0  0  0  0  0  0  0
    1.4430    0.3808    0.0000 C   0  0  0  0  0  0  0  0  0  0  0  0
    2.0318    1.1890    0.0000 N   0  0  0  0  0  0  0  0  0  0  0  0
   -0.2214   -0.2560    0.0000 N   0  0  0  0  0  0  0  0  0  0  0  0
  1  2  1  0
  2  3  1  0
  3  4  1  0
  4  5  1  0
  5  6  2  0
  6  7  1  0
  7  8  1  0
  8  9  1  0
  7 10  2  0
 10  4  1  0
M  END

> <chembl_id>
CHEMBL4543793

> <chembl_pref_name>
None

$$$$

     RDKit          2D

  8  8  0  0  0  0  0  0  0  0999 V2000
    1.4430    0.3956    0.0000 C   0  0  0  0  0  0  0  0  0  0  0  0
    0.4486    0.5012    0.0000 C   0  0  0  0  0  0  0  0  0  0  0  0
   -0.2212   -0.2412    0.0000 N   0  0  0  0  0  0  0  0  0  0  0  0
   -1.1344    0.1666    0.0000 C   0  0  0  0  0  0  0  0  0  0  0  0
   -2.0010   -0.3324    0.0000 C   0  0  0  0  0  0  0  0  0  0  0  0
   -2.8662    0.1686    0.0000 N   0  0  0  0  0  0  0  0  0  0  0  0
   -1.0286    1.1610    0.0000 N   0  0  0  0  0  0  0  0  0  0  0  0
   -0.0504    1.3678    0.0000 O   0  0  0  0  0  0  0  0  0  0  0  0
  1  2  1  0
  2  3  2  0
  3  4  1  0
  4  5  1  0
  5  6  1  0
  4  7  2  0
  7  8  1  0
  8  2  1  0
M  END

> <chembl_id>
CHEMBL4521276

> <chembl_pref_name>
None

$$$$
 
     RDKit          2D

  9  9  0  0  0  0  0  0  0  0999 V2000
   13.6562  -16.7869    0.0000 O   0  0  0  0  0  0  0  0  0  0  0  0
   12.9887  -16.3015    0.0000 C   0  0  0  0  0  0  0  0  0  0  0  0
   13.2452  -15.5163    0.0000 N   0  0  0  0  0  0  0  0  0  0  0  0
   14.0714  -15.5163    0.0000 C   0  0  0  0  0  0  0  0  0  0  0  0
   14.3236  -16.3015    0.0000 C   0  0  0  0  0  0  0  0  0  0  0  0
   15.1222  -16.5154    0.0000 C   0  0  0  0  0  0  0  0  0  0  0  0
   15.7071  -15.9348    0.0000 O   0  0  0  0  0  0  0  0  0  0  0  0
   15.3361  -17.3141    0.0000 O   0  0  0  0  0  0  0  0  0  0  0  0
   14.4825  -14.8023    0.0000 C   0  0  0  0  0  0  0  0  0  0  0  0
  1  2  1  0
  2  3  2  0
  3  4  1  0
  4  5  2  0
  5  1  1  0
  5  6  1  0
  6  7  2  0
  6  8  1  0
  4  9  1  0
M  END

> <chembl_id>
CHEMBL4447127

> <chembl_pref_name>
None

$$$$

     RDKit          2D

 10 10  0  0  0  0  0  0  0  0999 V2000
    6.9625  -10.4001    0.0000 C   0  0  0  0  0  0  0  0  0  0  0  0
    6.2481   -9.9876    0.0000 C   0  0  0  0  0  0  0  0  0  0  0  0
    6.2530   -9.1615    0.0000 C   0  0  0  0  0  0  0  0  0  0  0  0
    5.5394   -8.7491    0.0000 C   0  0  0  0  0  0  0  0  0  0  0  0
    4.8240   -9.1616    0.0000 C   0  0  0  0  0  0  0  0  0  0  0  0
    4.8266   -9.9909    0.0000 C   0  0  0  0  0  0  0  0  0  0  0  0
    5.5408  -10.3996    0.0000 C   0  0  0  0  0  0  0  0  0  0  0  0
    7.6709   -9.9876    0.0000 N   0  0  0  0  0  0  0  0  0  0  0  0
    4.1089   -8.7501    0.0000 C   0  0  0  0  0  0  0  0  0  0  0  0
    3.3939   -8.3385    0.0000 N   0  0  0  0  0  0  0  0  0  0  0  0
  1  8  1  0
  1  2  1  0
  2  3  2  0
  3  4  1  0
  4  5  2  0
  5  6  1  0
  6  7  2  0
  7  2  1  0
  5  9  1  0
  9 10  3  0
M  END

> <chembl_id>
CHEMBL4068773

> <chembl_pref_name>
None

$$$$
 
     RDKit          2D

 10 10  0  0  0  0  0  0  0  0999 V2000
   41.5226   -4.8618    0.0000 C   0  0  0  0  0  0  0  0  0  0  0  0
   41.5215   -5.6814    0.0000 C   0  0  0  0  0  0  0  0  0  0  0  0
   42.2295   -6.0903    0.0000 C   0  0  0  0  0  0  0  0  0  0  0  0
   42.9392   -5.6809    0.0000 C   0  0  0  0  0  0  0  0  0  0  0  0
   42.9364   -4.8582    0.0000 C   0  0  0  0  0  0  0  0  0  0  0  0
   42.2277   -4.4530    0.0000 C   0  0  0  0  0  0  0  0  0  0  0  0
   42.2253   -3.6358    0.0000 C   0  0  0  0  0  0  0  0  0  0  0  0
   42.9318   -3.2251    0.0000 C   0  0  0  0  0  0  0  0  0  0  0  0
   41.5164   -3.2293    0.0000 O   0  0  0  0  0  0  0  0  0  0  0  0
   43.6383   -2.8144    0.0000 C   0  0  0  0  0  0  0  0  0  0  0  0
  1  2  2  0
  2  3  1  0
  3  4  2  0
  4  5  1  0
  5  6  2  0
  6  1  1  0
  6  7  1  0
  7  8  1  0
  7  9  2  0
  8 10  3  0
M  END

> <chembl_id>
CHEMBL4541377

> <chembl_pref_name>
None

$$$$

     RDKit          2D

 11 12  0  0  0  0  0  0  0  0999 V2000
    0.4706    1.7388    0.0000 N   0  0  0  0  0  0  0  0  0  0  0  0
    0.4698    0.7388    0.0000 C   0  0  0  0  0  0  0  0  0  0  0  0
    1.3354    0.2382    0.0000 C   0  0  0  0  0  0  0  0  0  0  0  0
    1.3346   -0.7618    0.0000 O   0  0  0  0  0  0  0  0  0  0  0  0
    0.4682   -1.2612    0.0000 C   0  0  0  0  0  0  0  0  0  0  0  0
   -0.3974   -0.7604    0.0000 C   0  0  0  0  0  0  0  0  0  0  0  0
   -1.2638   -1.2598    0.0000 C   0  0  0  0  0  0  0  0  0  0  0  0
   -2.1294   -0.7592    0.0000 C   0  0  0  0  0  0  0  0  0  0  0  0
   -2.1286    0.2408    0.0000 C   0  0  0  0  0  0  0  0  0  0  0  0
   -1.2622    0.7402    0.0000 C   0  0  0  0  0  0  0  0  0  0  0  0
   -0.3966    0.2396    0.0000 C   0  0  0  0  0  0  0  0  0  0  0  0
  1  2  1  0
  2  3  1  0
  3  4  1  0
  4  5  1  0
  5  6  1  0
  6  7  2  0
  7  8  1  0
  8  9  2  0
  9 10  1  0
 10 11  2  0
 11  2  1  0
 11  6  1  0
M  END

> <chembl_id>
CHEMBL4555853

> <chembl_pref_name>
None

$$$$

     RDKit          2D

 10 10  0  0  0  0  0  0  0  0999 V2000
    2.6890   -0.5446    0.0000 N   0  0  0  0  0  0  0  0  0  0  0  0
    1.8224   -0.0456    0.0000 C   0  0  0  0  0  0  0  0  0  0  0  0
    1.8210    0.9544    0.0000 O   0  0  0  0  0  0  0  0  0  0  0  0
    0.9570   -0.5466    0.0000 C   0  0  0  0  0  0  0  0  0  0  0  0
    0.0904   -0.0476    0.0000 N   0  0  0  0  0  0  0  0  0  0  0  0
   -0.8226   -0.4554    0.0000 C   0  0  0  0  0  0  0  0  0  0  0  0
   -1.4926    0.2870    0.0000 C   0  0  0  0  0  0  0  0  0  0  0  0
   -2.4870    0.1814    0.0000 N   0  0  0  0  0  0  0  0  0  0  0  0
   -0.9936    1.1536    0.0000 C   0  0  0  0  0  0  0  0  0  0  0  0
   -0.0152    0.9468    0.0000 N   0  0  0  0  0  0  0  0  0  0  0  0
  1  2  1  0
  2  3  2  0
  2  4  1  0
  4  5  1  0
  5  6  1  0
  6  7  2  0
  7  8  1  0
  7  9  1  0
  9 10  2  0
 10  5  1  0
M  END

> <chembl_id>
CHEMBL4520143

> <chembl_pref_name>
None

$$$$

     RDKit          2D

 11 11  0  0  0  0  0  0  0  0999 V2000
    2.1348    2.2190    0.0000 N   0  0  0  0  0  0  0  0  0  0  0  0
    1.2706    1.7158    0.0000 C   0  0  0  0  0  0  0  0  0  0  0  0
    0.4064    1.2128    0.0000 C   0  0  0  0  0  0  0  0  0  0  0  0
    0.4100    0.2128    0.0000 C   0  0  0  0  0  0  0  0  0  0  0  0
   -0.4542   -0.2902    0.0000 C   0  0  0  0  0  0  0  0  0  0  0  0
   -1.3220    0.2066    0.0000 C   0  0  0  0  0  0  0  0  0  0  0  0
   -2.1862   -0.2966    0.0000 C   0  0  0  0  0  0  0  0  0  0  0  0
   -3.0540    0.2004    0.0000 C   0  0  0  0  0  0  0  0  0  0  0  0
   -3.9182   -0.3028    0.0000 N   0  0  0  0  0  0  0  0  0  0  0  0
   -1.3256    1.2066    0.0000 C   0  0  0  0  0  0  0  0  0  0  0  0
   -0.4614    1.7096    0.0000 C   0  0  0  0  0  0  0  0  0  0  0  0
  1  2  3  0
  2  3  1  0
  3  4  2  0
  4  5  1  0
  5  6  2  0
  6  7  1  0
  7  8  1  0
  8  9  1  0
  6 10  1  0
 10 11  2  0
 11  3  1  0
M  END

> <chembl_id>
CHEMBL4532345

> <chembl_pref_name>
None

$$$$

     RDKit          2D

 10 11  0  0  0  0  0  0  0  0999 V2000
    0.9024    2.0626    0.0000 O   0  0  0  0  0  0  0  0  0  0  0  0
    0.9032    1.0626    0.0000 C   0  0  0  0  0  0  0  0  0  0  0  0
    1.7696    0.5632    0.0000 C   0  0  0  0  0  0  0  0  0  0  0  0
    1.7704   -0.4368    0.0000 C   0  0  0  0  0  0  0  0  0  0  0  0
    0.9048   -0.9374    0.0000 C   0  0  0  0  0  0  0  0  0  0  0  0
    0.0384   -0.4380    0.0000 N   0  0  0  0  0  0  0  0  0  0  0  0
   -0.9124   -0.7478    0.0000 C   0  0  0  0  0  0  0  0  0  0  0  0
   -1.5008    0.0606    0.0000 C   0  0  0  0  0  0  0  0  0  0  0  0
   -0.9136    0.8702    0.0000 N   0  0  0  0  0  0  0  0  0  0  0  0
    0.0376    0.5620    0.0000 C   0  0  0  0  0  0  0  0  0  0  0  0
  1  2  1  0
  2  3  1  0
  3  4  1  0
  4  5  1  0
  5  6  1  0
  6  7  1  0
  7  8  2  0
  8  9  1  0
  9 10  2  0
 10  2  1  0
 10  6  1  0
M  END

> <chembl_id>
CHEMBL4560719

> <chembl_pref_name>
None

$$$$
 
     RDKit          2D

  8  8  0  0  0  0  0  0  0  0999 V2000
   17.1266   -3.3760    0.0000 C   0  0  0  0  0  0  0  0  0  0  0  0
   17.1254   -4.1956    0.0000 C   0  0  0  0  0  0  0  0  0  0  0  0
   17.8335   -4.6045    0.0000 N   0  0  0  0  0  0  0  0  0  0  0  0
   18.5431   -4.1951    0.0000 C   0  0  0  0  0  0  0  0  0  0  0  0
   18.5403   -3.3724    0.0000 C   0  0  0  0  0  0  0  0  0  0  0  0
   17.8317   -2.9672    0.0000 C   0  0  0  0  0  0  0  0  0  0  0  0
   19.2465   -2.9612    0.0000 O   0  0  0  0  0  0  0  0  0  0  0  0
   19.2515   -4.6026    0.0000 N   0  0  0  0  0  0  0  0  0  0  0  0
  1  2  2  0
  2  3  1  0
  3  4  2  0
  4  5  1  0
  5  6  2  0
  6  1  1  0
  5  7  1  0
  4  8  1  0
M  END

> <chembl_id>
CHEMBL4777856

> <chembl_pref_name>
None

$$$$

     RDKit          2D

  9  9  0  0  0  0  0  0  0  0999 V2000
   -4.4670   -0.2324    0.0000 C   0  0  0  0  0  0  0  0  0  0  0  0
   -3.6018   -0.7334    0.0000 C   0  0  0  0  0  0  0  0  0  0  0  0
   -2.7352   -0.2344    0.0000 N   0  0  0  0  0  0  0  0  0  0  0  0
   -1.8698   -0.7354    0.0000 C   0  0  0  0  0  0  0  0  0  0  0  0
   -1.0034   -0.2364    0.0000 C   0  0  0  0  0  0  0  0  0  0  0  0
   -0.8976    0.7580    0.0000 N   0  0  0  0  0  0  0  0  0  0  0  0
    0.0808    0.9650    0.0000 C   0  0  0  0  0  0  0  0  0  0  0  0
    0.5798    0.0982    0.0000 C   0  0  0  0  0  0  0  0  0  0  0  0
   -0.0902   -0.6442    0.0000 S   0  0  0  0  0  0  0  0  0  0  0  0
  1  2  1  0
  2  3  1  0
  3  4  1  0
  4  5  1  0
  5  6  2  0
  6  7  1  0
  7  8  2  0
  8  9  1  0
  9  5  1  0
M  END

> <chembl_id>
CHEMBL4573122

> <chembl_pref_name>
None

$$$$

     RDKit          2D

 10 10  0  0  0  0  0  0  0  0999 V2000
   -1.4209   -1.6360    0.0000 O   0  0  0  0  0  0  0  0  0  0  0  0
   -2.1353    0.4265    0.0000 N   0  0  0  0  0  0  0  0  0  0  0  0
   -2.1353   -0.3985    0.0000 C   0  0  0  0  0  0  0  0  0  0  0  0
   -1.4209   -0.8110    0.0000 C   0  0  0  0  0  0  0  0  0  0  0  0
   -2.8498    0.8390    0.0000 C   0  0  0  0  0  0  0  0  0  0  0  0
   -2.8498   -0.8110    0.0000 C   0  0  0  0  0  0  0  0  0  0  0  0
   -3.5643    0.4265    0.0000 C   0  0  0  0  0  0  0  0  0  0  0  0
   -3.5643   -0.3985    0.0000 C   0  0  0  0  0  0  0  0  0  0  0  0
   -0.7064   -0.3985    0.0000 C   0  0  0  0  0  0  0  0  0  0  0  0
   -2.8498    1.6640    0.0000 C   0  0  0  0  0  0  0  0  0  0  0  0
  1  4  1  0
  2  3  1  0
  2  5  2  0
  3  4  1  0
  3  6  2  0
  4  9  1  0
  5  7  1  0
  5 10  1  0
  6  8  1  0
  7  8  2  0
M  END

> <chembl_id>
CHEMBL1979136

> <chembl_pref_name>
None

$$$$
